
*** ChampSim Multicore Out-of-Order Simulator ***

Warmup Instructions: 25000000
Simulation Instructions: 25000000
Number of CPUs: 1
LLC sets: 2048
LLC ways: 16
Off-chip DRAM Size: 4096 MB Channels: 1 Width: 64-bit Data Rate: 6400 MT/s
CPU 0 runs /home/yashas/CS683/pa2-lehra-do-prefetcher-wronganswersonly/traces/trace3.champsimtrace.xz
.xz
CPU 0 Bimodal branch predictor
BTB has LRU replacement policy
ITLB has LRU replacement policy
DTLB has LRU replacement policy
CPU 0 STLB arbitrary stride prefetcher
STLB has LRU replacement policy
L1I has LRU replacement policy
CPU 0 L1D Optimized prefetcher
L1D has LRU replacement policy
L2C has LRU replacement policy
LLC has LRU replacement policy
Heartbeat CPU 0 instructions: 10000001 cycles: 3779427 heartbeat IPC: 2.6459 cumulative IPC: 2.6459 (Simulation time: 0 hr 0 min 18 sec) 
Heartbeat CPU 0 instructions: 20000000 cycles: 7530985 heartbeat IPC: 2.66556 cumulative IPC: 2.6557 (Simulation time: 0 hr 0 min 37 sec) 

Warmup complete CPU 0 instructions: 25000004 cycles: 9437493 (Simulation time: 0 hr 0 min 46 sec) 

IP_STRIDE Accuracy is 145.455 
Switching to CPLX L1D prefetcher
CPLX Accuracy is 81.8182 
Switching to NL L1D prefetcher
NL Accuracy is 20.4545 
Prefetcher set to IP_STRIDE
Heartbeat CPU 0 instructions: 30000001 cycles: 37676004 heartbeat IPC: 0.33173 cumulative IPC: 0.177063 (Simulation time: 0 hr 1 min 8 sec) 
Heartbeat CPU 0 instructions: 40000002 cycles: 94565949 heartbeat IPC: 0.175778 cumulative IPC: 0.176204 (Simulation time: 0 hr 1 min 49 sec) 
Heartbeat CPU 0 instructions: 50000000 cycles: 154779118 heartbeat IPC: 0.166077 cumulative IPC: 0.172009 (Simulation time: 0 hr 2 min 33 sec) 
Finished CPU 0 instructions: 25000000 cycles: 145341627 cumulative IPC: 0.172009 (Simulation time: 0 hr 2 min 33 sec) 

ChampSim completed all CPUs

Region of Interest Statistics

CPU 0 cumulative IPC: 0.172009 instructions: 25000000 cycles: 145341627
ITLB TOTAL     ACCESS:    4038391  HIT:    4038391  MISS:          0  HIT %:        100  MISS %:          0   MPKI: 0
ITLB LOAD TRANSLATION ACCESS:    4038391  HIT:    4038391  MISS:          0  HIT %:        100  MISS %:          0   MPKI: 0
ITLB PREFETCH  REQUESTED:          0  ISSUED:          0  USEFUL:          0  USELESS:          0
ITLB USEFUL LOAD PREFETCHES:          0 PREFETCH ISSUED TO LOWER LEVEL:          0  ACCURACY: -nan
ITLB TIMELY PREFETCHES:          0 LATE PREFETCHES: 0 DROPPED PREFETCHES: 0
ITLB PREFETCHES SAME FILL-ORIGIN LEVEL: 0 DIFFERENT FILL-ORIGIN LEVEL: 0
ITLB AVERAGE MISS LATENCY: -nan cycles
ITLB RQ	ACCESS:    4089594	FORWARD:          0	MERGED:      51204	TO_CACHE:    4038390

DTLB TOTAL     ACCESS:    5228497  HIT:    3024621  MISS:    2203876  HIT %:    57.8488  MISS %:    42.1512   MPKI: 88.155
DTLB LOAD TRANSLATION ACCESS:    5228497  HIT:    3024621  MISS:    2203876  HIT %:    57.8488  MISS %:    42.1512   MPKI: 88.155
DTLB PREFETCH  REQUESTED:          0  ISSUED:          0  USEFUL:          0  USELESS:          0
DTLB USEFUL LOAD PREFETCHES:          0 PREFETCH ISSUED TO LOWER LEVEL:          0  ACCURACY: -nan
DTLB TIMELY PREFETCHES:          0 LATE PREFETCHES: 0 DROPPED PREFETCHES: 0
DTLB PREFETCHES SAME FILL-ORIGIN LEVEL: 0 DIFFERENT FILL-ORIGIN LEVEL: 0
DTLB AVERAGE MISS LATENCY: 11.0271 cycles
DTLB RQ	ACCESS:    5753163	FORWARD:          0	MERGED:     495725	TO_CACHE:    5257438

STLB TOTAL     ACCESS:    2998766  HIT:    2965125  MISS:      33641  HIT %:    98.8782  MISS %:    1.12183   MPKI: 1.34564
STLB LOAD TRANSLATION ACCESS:    2203876  HIT:    2172673  MISS:      31203  HIT %:    98.5842  MISS %:    1.41582   MPKI: 1.24812
STLB PREFETCH TRANSLATION ACCESS:     181972  HIT:     179534  MISS:       2438  HIT %:    98.6602  MISS %:    1.33977   MPKI: 0.09752
STLB TRANSLATION FROM L1D PREFETCHER ACCESS:     612918  HIT:     612918  MISS:          0  HIT %:        100  MISS %:          0   MPKI: 0
STLB PREFETCH  REQUESTED:     358032  ISSUED:     351543  USEFUL:        502  USELESS:       1953
STLB USEFUL LOAD PREFETCHES:        502 PREFETCH ISSUED TO LOWER LEVEL:     171151  ACCURACY: 0.293308
STLB TIMELY PREFETCHES:        502 LATE PREFETCHES: 20 DROPPED PREFETCHES: 168693
STLB PREFETCHES SAME FILL-ORIGIN LEVEL: 171151 DIFFERENT FILL-ORIGIN LEVEL: 0
STLB AVERAGE MISS LATENCY: 122.082 cycles
STLB RQ	ACCESS:    5213485	FORWARD:          0	MERGED:    2396691	TO_CACHE:    2816794
STLB PQ	ACCESS:     351543	FORWARD:          0	MERGED:        762	TO_CACHE:     350781

STLB Hit, L1D data hit: 0
STLB Hit, L2C data hit: 0
STLB Hit, LLC data hit: 0
STLB Hit, LLC data miss: 0
STLB STLB hints to L2: 0
L1D TOTAL     ACCESS:    7200706  HIT:    3316992  MISS:    3883714  HIT %:    46.0648  MISS %:    53.9352   MPKI: 155.349
L1D LOAD      ACCESS:    5250258  HIT:    2132787  MISS:    3117471  HIT %:    40.6225  MISS %:    59.3775   MPKI: 124.699
L1D RFO       ACCESS:     424051  HIT:     416224  MISS:       7827  HIT %:    98.1542  MISS %:    1.84577   MPKI: 0.31308
L1D PREFETCH  ACCESS:    1526397  HIT:     767981  MISS:     758416  HIT %:    50.3133  MISS %:    49.6867   MPKI: 30.3366
AGUS PREFETCH L1 MISS: 0
L1D PREFETCH  REQUESTED:    6613772  ISSUED:    6613772  USEFUL:     756855  USELESS:       1559
L1D USEFUL LOAD PREFETCHES:     756855 PREFETCH ISSUED TO LOWER LEVEL:    1168578  ACCURACY: 64.7672
L1D TIMELY PREFETCHES:     756855 LATE PREFETCHES: 410162 DROPPED PREFETCHES: 0
L1D PREFETCHES SAME FILL-ORIGIN LEVEL: 1168578 DIFFERENT FILL-ORIGIN LEVEL: 0
L1D AVERAGE MISS LATENCY: 114.037 cycles
L1D RQ	ACCESS:    8951615	FORWARD:          0	MERGED:    3576716	TO_CACHE:    5310049
L1D WQ	ACCESS:     459661	FORWARD:      64850	MERGED:      16547	TO_CACHE:     443114
L1D PQ	ACCESS:    3604163	FORWARD:          0	MERGED:     594554	TO_CACHE:    3009609

L1D UNIQUE REGIONS ACCESSED: 0
L1D REGIONS CONFLICTS: 0
L1D Cross Page Prefetch Requests: 0
L1D Same Page Prefetch Requests: 3604163
L1D ROI Sum of L1D PQ occupancy: 41356570
L1D PREFETCHES PUSHED FROM L2C: 0
L1I TOTAL     ACCESS:    4089595  HIT:    4089595  MISS:          0  HIT %:        100  MISS %:          0   MPKI: 0
L1I LOAD      ACCESS:    4089595  HIT:    4089595  MISS:          0  HIT %:        100  MISS %:          0   MPKI: 0
L1I PREFETCH  REQUESTED:          0  ISSUED:          0  USEFUL:          0  USELESS:          0
L1I USEFUL LOAD PREFETCHES:          0 PREFETCH ISSUED TO LOWER LEVEL:          0  ACCURACY: -nan
L1I TIMELY PREFETCHES:          0 LATE PREFETCHES: 0 DROPPED PREFETCHES: 0
L1I PREFETCHES SAME FILL-ORIGIN LEVEL: 0 DIFFERENT FILL-ORIGIN LEVEL: 0
L1I AVERAGE MISS LATENCY: -nan cycles
L1I RQ	ACCESS:    5489024	FORWARD:          0	MERGED:    1399430	TO_CACHE:    4089594

BTB TOTAL     ACCESS:    7381233  HIT:    7359090  MISS:      22143  HIT %:       99.7  MISS %:   0.299991   MPKI: 0.88572
BTB BRANCH_DIRECT_JUMP	ACCESS:     954613  HIT:     954578  MISS:         35
BTB BRANCH_INDIRECT	ACCESS:          0  HIT:          0  MISS:          0
BTB BRANCH_CONDITIONAL	ACCESS:    6254608  HIT:    6254529  MISS:         79
BTB BRANCH_DIRECT_CALL	ACCESS:      79755  HIT:      79739  MISS:         16
BTB BRANCH_INDIRECT_CALL	ACCESS:       6250  HIT:       6242  MISS:          8
BTB BRANCH_RETURN	ACCESS:      86007  HIT:      64002  MISS:      22005
BTB BRANCH_OTHER ACCESS:          0  HIT:          0  MISS:          0

L2C TOTAL     ACCESS:    4166113  HIT:     680689  MISS:    3485424  HIT %:    16.3387  MISS %:    83.6613   MPKI: 139.417
L2C LOAD      ACCESS:    2707303  HIT:     410775  MISS:    2296528  HIT %:    15.1728  MISS %:    84.8272   MPKI: 91.8611
L2C DATA LOAD MPKI: 91.8611
L2C INSTRUCTION LOAD MPKI: 0
L2C RFO       ACCESS:       7827  HIT:        780  MISS:       7047  HIT %:     9.9655  MISS %:    90.0345   MPKI: 0.28188
L2C PREFETCH  ACCESS:    1168578  HIT:        171  MISS:    1168407  HIT %:  0.0146332  MISS %:    99.9854   MPKI: 46.7363
AGUS PREFETCH L1 MISS: 0
L2C DATA PREFETCH MPKI: 46.7363
L2C INSTRUCTION PREFETCH MPKI: 0
L2C WRITEBACK ACCESS:      79749  HIT:      79749  MISS:          0  HIT %:        100  MISS %:          0   MPKI: 0
L2C LOAD TRANSLATION ACCESS:      31357  HIT:      23680  MISS:       7677  HIT %:    75.5174  MISS %:    24.4826   MPKI: 0.30708
L2C PREFETCH TRANSLATION ACCESS:     171299  HIT:     165534  MISS:       5765  HIT %:    96.6345  MISS %:    3.36546   MPKI: 0.2306
L2C PREFETCH  REQUESTED:          0  ISSUED:          0  USEFUL:       4284  USELESS:    1167275
L2C USEFUL LOAD PREFETCHES:       4284 PREFETCH ISSUED TO LOWER LEVEL:    1168407  ACCURACY: 0.366653
L2C TIMELY PREFETCHES:       4284 LATE PREFETCHES: 0 DROPPED PREFETCHES: 0
L2C PREFETCHES SAME FILL-ORIGIN LEVEL: 0 DIFFERENT FILL-ORIGIN LEVEL: 0
L2C AVERAGE MISS LATENCY: 110.266 cycles
L2C RQ	ACCESS:    2917792	FORWARD:          0	MERGED:          0	TO_CACHE:    2917786
L2C WQ	ACCESS:      79749	FORWARD:          6	MERGED:          0	TO_CACHE:      79749
L2C PQ	ACCESS:    1168578	FORWARD:          0	MERGED:          0	TO_CACHE:    1168578

L2C Instructions Evicting Data 0
L2C Translations Evicting Data 13406
L2C Data Evicting Data 3458571
L2C Instructions Evicting Instructions 0
L2C Translations Evicting Instructions 0
L2C Data Evicting Instructions 0
L2C Instructions Evicting Translations 0
L2C Translations Evicting Translations 36
L2C Data Evicting Translations 13411
L2C Dense regions hint from L2: 0
PSCL5 TOTAL     ACCESS:     202334  HIT:     202334  MISS:          0  HIT %:        100  MISS %:          0   MPKI: 0
PSCL5 LOAD TRANSLATION ACCESS:      31183  HIT:      31183  MISS:          0  HIT %:        100  MISS %:          0   MPKI: 0
PSCL5 PREFETCH TRANSLATION ACCESS:     171151  HIT:     171151  MISS:          0  HIT %:        100  MISS %:          0   MPKI: 0
PSCL5 PREFETCH  REQUESTED:          0  ISSUED:          0  USEFUL:          0  USELESS:          0
PSCL5 USEFUL LOAD PREFETCHES:          0 PREFETCH ISSUED TO LOWER LEVEL:          0  ACCURACY: -nan
PSCL5 TIMELY PREFETCHES:          0 LATE PREFETCHES: 0 DROPPED PREFETCHES: 0
PSCL5 PREFETCHES SAME FILL-ORIGIN LEVEL: 0 DIFFERENT FILL-ORIGIN LEVEL: 0

PSCL4 TOTAL     ACCESS:     202334  HIT:     202334  MISS:          0  HIT %:        100  MISS %:          0   MPKI: 0
PSCL4 LOAD TRANSLATION ACCESS:      31183  HIT:      31183  MISS:          0  HIT %:        100  MISS %:          0   MPKI: 0
PSCL4 PREFETCH TRANSLATION ACCESS:     171151  HIT:     171151  MISS:          0  HIT %:        100  MISS %:          0   MPKI: 0
PSCL4 PREFETCH  REQUESTED:          0  ISSUED:          0  USEFUL:          0  USELESS:          0
PSCL4 USEFUL LOAD PREFETCHES:          0 PREFETCH ISSUED TO LOWER LEVEL:          0  ACCURACY: -nan
PSCL4 TIMELY PREFETCHES:          0 LATE PREFETCHES: 0 DROPPED PREFETCHES: 0
PSCL4 PREFETCHES SAME FILL-ORIGIN LEVEL: 0 DIFFERENT FILL-ORIGIN LEVEL: 0

PSCL3 TOTAL     ACCESS:     202334  HIT:     202334  MISS:          0  HIT %:        100  MISS %:          0   MPKI: 0
PSCL3 LOAD TRANSLATION ACCESS:      31183  HIT:      31183  MISS:          0  HIT %:        100  MISS %:          0   MPKI: 0
PSCL3 PREFETCH TRANSLATION ACCESS:     171151  HIT:     171151  MISS:          0  HIT %:        100  MISS %:          0   MPKI: 0
PSCL3 PREFETCH  REQUESTED:          0  ISSUED:          0  USEFUL:          0  USELESS:          0
PSCL3 USEFUL LOAD PREFETCHES:          0 PREFETCH ISSUED TO LOWER LEVEL:          0  ACCURACY: -nan
PSCL3 TIMELY PREFETCHES:          0 LATE PREFETCHES: 0 DROPPED PREFETCHES: 0
PSCL3 PREFETCHES SAME FILL-ORIGIN LEVEL: 0 DIFFERENT FILL-ORIGIN LEVEL: 0

PSCL2 TOTAL     ACCESS:     200046  HIT:     199717  MISS:        329  HIT %:    99.8355  MISS %:   0.164462   MPKI: 0.01316
PSCL2 LOAD TRANSLATION ACCESS:      31202  HIT:      30873  MISS:        329  HIT %:    98.9456  MISS %:    1.05442   MPKI: 0.01316
PSCL2 PREFETCH TRANSLATION ACCESS:     168844  HIT:     168844  MISS:          0  HIT %:        100  MISS %:          0   MPKI: 0
PSCL2 PREFETCH  REQUESTED:          0  ISSUED:          0  USEFUL:          0  USELESS:          0
PSCL2 USEFUL LOAD PREFETCHES:          0 PREFETCH ISSUED TO LOWER LEVEL:          0  ACCURACY: -nan
PSCL2 TIMELY PREFETCHES:          0 LATE PREFETCHES: 0 DROPPED PREFETCHES: 0
PSCL2 PREFETCHES SAME FILL-ORIGIN LEVEL: 0 DIFFERENT FILL-ORIGIN LEVEL: 0

LLC TOTAL     ACCESS:    3561003  HIT:    1563924  MISS:    1997079  HIT %:    43.9181  MISS %:    56.0819   MPKI: 79.8832
LLC LOAD      ACCESS:    2296528  HIT:    1474214  MISS:     822314  HIT %:    64.1932  MISS %:    35.8068   MPKI: 32.8926
LLC RFO       ACCESS:       7047  HIT:       5913  MISS:       1134  HIT %:     83.908  MISS %:     16.092   MPKI: 0.04536
LLC PREFETCH  ACCESS:    1168407  HIT:       1035  MISS:    1167372  HIT %:  0.0885821  MISS %:    99.9114   MPKI: 46.6949
AGUS PREFETCH L1 MISS: 0
LLC WRITEBACK ACCESS:      75579  HIT:      75458  MISS:        121  HIT %:    99.8399  MISS %:   0.160097   MPKI: 0.00484
LLC LOAD TRANSLATION ACCESS:       7677  HIT:       5099  MISS:       2578  HIT %:    66.4192  MISS %:    33.5808   MPKI: 0.10312
LLC PREFETCH TRANSLATION ACCESS:       5765  HIT:       2205  MISS:       3560  HIT %:     38.248  MISS %:     61.752   MPKI: 0.1424
LLC PREFETCH  REQUESTED:          0  ISSUED:          0  USEFUL:       1170  USELESS:    1154057
LLC USEFUL LOAD PREFETCHES:       1170 PREFETCH ISSUED TO LOWER LEVEL:    1167372  ACCURACY: 0.100225
LLC TIMELY PREFETCHES:       1170 LATE PREFETCHES: 0 DROPPED PREFETCHES: 0
LLC PREFETCHES SAME FILL-ORIGIN LEVEL: 0 DIFFERENT FILL-ORIGIN LEVEL: 0
LLC AVERAGE MISS LATENCY: 139.401 cycles
LLC RQ	ACCESS:    2317017	FORWARD:          0	MERGED:          0	TO_CACHE:    2317017
LLC WQ	ACCESS:      75579	FORWARD:          0	MERGED:          0	TO_CACHE:      75579
LLC PQ	ACCESS:    1168407	FORWARD:          0	MERGED:          0	TO_CACHE:    1168407

LLC Dense regions hint to LLC: 0

RAW hits: 62712
Loads Generated: 9014327
Loads sent to L1D: 8951615
Stores Generated: 459660
Stores sent to L1D: 459661
Major fault: 0 Minor fault: 44120
Allocated PAGES: 44120
CPU 0 L1D optimized prefetcher final stats
Degree: 5
CPU 0 STLB arbitrary stride prefetcher final stats
Degree: 8

DRAM Statistics
 CHANNEL 0
 RQ ROW_BUFFER_HIT:     923357  ROW_BUFFER_MISS:    1073585
 DBUS_CONGESTED:        272
 WQ ROW_BUFFER_HIT:       9553  ROW_BUFFER_MISS:      30221  FULL:          0

 AVG_CONGESTED_CYCLE: 4
 All warmup complete: 2
Channel 0 Bank busy for read cycles: 0
Channel 0 Bank busy for write cycles: 0
Channel 0
Rank 0
0banks busy for read cycles: 54628532
0banks busy for write cycles: 15142
1banks busy for read cycles: 37007583
1banks busy for write cycles: 2788656
2banks busy for read cycles: 19321860
2banks busy for write cycles: 571615
3banks busy for read cycles: 11490623
3banks busy for write cycles: 243078
4banks busy for read cycles: 6846298
4banks busy for write cycles: 142913
5banks busy for read cycles: 5095198
5banks busy for write cycles: 120235
6banks busy for read cycles: 3571862
6banks busy for write cycles: 107040
7banks busy for read cycles: 1721311
7banks busy for write cycles: 134040
8banks busy for read cycles: 1345368
8banks busy for write cycles: 190274

CPU 0 Branch Prediction Accuracy: 96.3142% MPKI: 11.2642 Average ROB Occupancy at Mispredict: 45.6036
Branch types
NOT_BRANCH: 17359361 69.4374%
BRANCH_DIRECT_JUMP: 954613 3.81845%
BRANCH_INDIRECT: 0 0%
BRANCH_CONDITIONAL: 6513665 26.0547%
BRANCH_DIRECT_CALL: 79755 0.31902%
BRANCH_INDIRECT_CALL: 6250 0.025%
BRANCH_RETURN: 86007 0.344028%
BRANCH_OTHER: 0 0%

DRAM PAGES: 1048576
Allocated PAGES: 44120
