
*** ChampSim Multicore Out-of-Order Simulator ***

Warmup Instructions: 25000000
Simulation Instructions: 25000000
Number of CPUs: 1
LLC sets: 2048
LLC ways: 16
Off-chip DRAM Size: 4096 MB Channels: 1 Width: 64-bit Data Rate: 6400 MT/s
CPU 0 runs /home/yashas/CS683/pa2-lehra-do-prefetcher-wronganswersonly/traces/trace1.champsimtrace.xz
.xz
CPU 0 Bimodal branch predictor
BTB has LRU replacement policy
ITLB has LRU replacement policy
DTLB has LRU replacement policy
STLB has LRU replacement policy
L1I has LRU replacement policy
CPU 0 L1D Optimized prefetcher
L1D has LRU replacement policy
L2C has LRU replacement policy
LLC has LRU replacement policy
Heartbeat CPU 0 instructions: 10000003 cycles: 2830061 heartbeat IPC: 3.53349 cumulative IPC: 3.53349 (Simulation time: 0 hr 0 min 15 sec) 
Heartbeat CPU 0 instructions: 20000003 cycles: 5650207 heartbeat IPC: 3.54592 cumulative IPC: 3.53969 (Simulation time: 0 hr 0 min 30 sec) 

Warmup complete CPU 0 instructions: 25000004 cycles: 7064357 (Simulation time: 0 hr 0 min 37 sec) 

IP_STRIDE Accuracy is 21.5385 
Switching to CPLX L1D prefetcher
Heartbeat CPU 0 instructions: 30000002 cycles: 23986150 heartbeat IPC: 0.545377 cumulative IPC: 0.295477 (Simulation time: 0 hr 0 min 58 sec) 
CPLX Accuracy is 7.87402 
Switching to NL L1D prefetcher
NL Accuracy is 159.542 
Prefetcher set to NL
Heartbeat CPU 0 instructions: 40000002 cycles: 57818075 heartbeat IPC: 0.295579 cumulative IPC: 0.295545 (Simulation time: 0 hr 1 min 44 sec) 
Heartbeat CPU 0 instructions: 50000000 cycles: 82112456 heartbeat IPC: 0.411618 cumulative IPC: 0.33312 (Simulation time: 0 hr 2 min 28 sec) 
Finished CPU 0 instructions: 25000000 cycles: 75048100 cumulative IPC: 0.33312 (Simulation time: 0 hr 2 min 28 sec) 

ChampSim completed all CPUs

Region of Interest Statistics

CPU 0 cumulative IPC: 0.33312 instructions: 25000000 cycles: 75048100
ITLB TOTAL     ACCESS:    4472104  HIT:    4472104  MISS:          0  HIT %:        100  MISS %:          0   MPKI: 0
ITLB LOAD TRANSLATION ACCESS:    4472104  HIT:    4472104  MISS:          0  HIT %:        100  MISS %:          0   MPKI: 0
ITLB PREFETCH  REQUESTED:          0  ISSUED:          0  USEFUL:          0  USELESS:          0
ITLB USEFUL LOAD PREFETCHES:          0 PREFETCH ISSUED TO LOWER LEVEL:          0  ACCURACY: -nan
ITLB TIMELY PREFETCHES:          0 LATE PREFETCHES: 0 DROPPED PREFETCHES: 0
ITLB PREFETCHES SAME FILL-ORIGIN LEVEL: 0 DIFFERENT FILL-ORIGIN LEVEL: 0
ITLB AVERAGE MISS LATENCY: -nan cycles
ITLB RQ	ACCESS:    4816381	FORWARD:          0	MERGED:     344278	TO_CACHE:    4472103

DTLB TOTAL     ACCESS:    3754693  HIT:    3091985  MISS:     662708  HIT %:    82.3499  MISS %:    17.6501   MPKI: 26.5083
DTLB LOAD TRANSLATION ACCESS:    3754693  HIT:    3091985  MISS:     662708  HIT %:    82.3499  MISS %:    17.6501   MPKI: 26.5083
DTLB PREFETCH  REQUESTED:          0  ISSUED:          0  USEFUL:          0  USELESS:          0
DTLB USEFUL LOAD PREFETCHES:          0 PREFETCH ISSUED TO LOWER LEVEL:          0  ACCURACY: -nan
DTLB TIMELY PREFETCHES:          0 LATE PREFETCHES: 0 DROPPED PREFETCHES: 0
DTLB PREFETCHES SAME FILL-ORIGIN LEVEL: 0 DIFFERENT FILL-ORIGIN LEVEL: 0
DTLB AVERAGE MISS LATENCY: 70.5106 cycles
DTLB RQ	ACCESS:    4351749	FORWARD:          0	MERGED:     590887	TO_CACHE:    3760862

STLB TOTAL     ACCESS:    2158745  HIT:    1596651  MISS:     562094  HIT %:     73.962  MISS %:     26.038   MPKI: 22.4838
STLB LOAD TRANSLATION ACCESS:     662708  HIT:     100733  MISS:     561975  HIT %:    15.2002  MISS %:    84.7998   MPKI: 22.479
STLB TRANSLATION FROM L1D PREFETCHER ACCESS:    1496037  HIT:    1495918  MISS:        119  HIT %:     99.992  MISS %: 0.00795435   MPKI: 0.00476
STLB PREFETCH  REQUESTED:          0  ISSUED:          0  USEFUL:        119  USELESS:          0
STLB USEFUL LOAD PREFETCHES:        119 PREFETCH ISSUED TO LOWER LEVEL:          0  ACCURACY: inf
STLB TIMELY PREFETCHES:        119 LATE PREFETCHES: 0 DROPPED PREFETCHES: 0
STLB PREFETCHES SAME FILL-ORIGIN LEVEL: 0 DIFFERENT FILL-ORIGIN LEVEL: 0
STLB AVERAGE MISS LATENCY: 72.4153 cycles
STLB RQ	ACCESS:    7719162	FORWARD:          0	MERGED:    5560412	TO_CACHE:    2158750

STLB Hit, L1D data hit: 0
STLB Hit, L2C data hit: 0
STLB Hit, LLC data hit: 0
STLB Hit, LLC data miss: 0
STLB STLB hints to L2: 0
L1D TOTAL     ACCESS:   11086533  HIT:    7663616  MISS:    3422917  HIT %:    69.1255  MISS %:    30.8745   MPKI: 136.917
L1D LOAD      ACCESS:    3222296  HIT:    2072871  MISS:    1149425  HIT %:     64.329  MISS %:     35.671   MPKI: 45.977
L1D RFO       ACCESS:    1108663  HIT:    1039303  MISS:      69360  HIT %:    93.7438  MISS %:    6.25618   MPKI: 2.7744
L1D PREFETCH  ACCESS:    6755574  HIT:    4551442  MISS:    2204132  HIT %:    67.3731  MISS %:    32.6269   MPKI: 88.1653
AGUS PREFETCH L1 MISS: 0
L1D PREFETCH  REQUESTED:   16389133  ISSUED:   16342226  USEFUL:      11527  USELESS:    2192026
L1D USEFUL LOAD PREFETCHES:      11527 PREFETCH ISSUED TO LOWER LEVEL:    2207101  ACCURACY: 0.522269
L1D TIMELY PREFETCHES:      11527 LATE PREFETCHES: 2966 DROPPED PREFETCHES: 0
L1D PREFETCHES SAME FILL-ORIGIN LEVEL: 2207101 DIFFERENT FILL-ORIGIN LEVEL: 0
L1D AVERAGE MISS LATENCY: 82.6379 cycles
L1D RQ	ACCESS:    6155853	FORWARD:          0	MERGED:    2853921	TO_CACHE:    3243084
L1D WQ	ACCESS:    1108674	FORWARD:      58848	MERGED:          9	TO_CACHE:    1108665
L1D PQ	ACCESS:    9285776	FORWARD:          0	MERGED:    2229326	TO_CACHE:    7056450

L1D UNIQUE REGIONS ACCESSED: 0
L1D REGIONS CONFLICTS: 0
L1D Cross Page Prefetch Requests: 0
L1D Same Page Prefetch Requests: 9285776
L1D ROI Sum of L1D PQ occupancy: 98420297
L1D PREFETCHES PUSHED FROM L2C: 0
L1I TOTAL     ACCESS:    4816381  HIT:    4816381  MISS:          0  HIT %:        100  MISS %:          0   MPKI: 0
L1I LOAD      ACCESS:    4816381  HIT:    4816381  MISS:          0  HIT %:        100  MISS %:          0   MPKI: 0
L1I PREFETCH  REQUESTED:          0  ISSUED:          0  USEFUL:          0  USELESS:          0
L1I USEFUL LOAD PREFETCHES:          0 PREFETCH ISSUED TO LOWER LEVEL:          0  ACCURACY: -nan
L1I TIMELY PREFETCHES:          0 LATE PREFETCHES: 0 DROPPED PREFETCHES: 0
L1I PREFETCHES SAME FILL-ORIGIN LEVEL: 0 DIFFERENT FILL-ORIGIN LEVEL: 0
L1I AVERAGE MISS LATENCY: -nan cycles
L1I RQ	ACCESS:    7238737	FORWARD:          0	MERGED:    2422356	TO_CACHE:    4816381

BTB TOTAL     ACCESS:    3283969  HIT:    3283961  MISS:          8  HIT %:    99.9998  MISS %: 0.000243608   MPKI: 0.00032
BTB BRANCH_DIRECT_JUMP	ACCESS:     568311  HIT:     568309  MISS:          2
BTB BRANCH_INDIRECT	ACCESS:          0  HIT:          0  MISS:          0
BTB BRANCH_CONDITIONAL	ACCESS:    1606988  HIT:    1606984  MISS:          4
BTB BRANCH_DIRECT_CALL	ACCESS:     554335  HIT:     554334  MISS:          1
BTB BRANCH_INDIRECT_CALL	ACCESS:          0  HIT:          0  MISS:          0
BTB BRANCH_RETURN	ACCESS:     554335  HIT:     554334  MISS:          1
BTB BRANCH_OTHER ACCESS:          0  HIT:          0  MISS:          0

L2C TOTAL     ACCESS:    4616550  HIT:    1406609  MISS:    3209941  HIT %:    30.4688  MISS %:    69.5312   MPKI: 128.398
L2C LOAD      ACCESS:    1146459  HIT:     286965  MISS:     859494  HIT %:    25.0306  MISS %:    74.9694   MPKI: 34.3798
L2C DATA LOAD MPKI: 34.3798
L2C INSTRUCTION LOAD MPKI: 0
L2C RFO       ACCESS:      69360  HIT:      19048  MISS:      50312  HIT %:    27.4625  MISS %:    72.5375   MPKI: 2.01248
L2C PREFETCH  ACCESS:    2207098  HIT:     326519  MISS:    1880579  HIT %:     14.794  MISS %:     85.206   MPKI: 75.2232
AGUS PREFETCH L1 MISS: 0
L2C DATA PREFETCH MPKI: 75.2232
L2C INSTRUCTION PREFETCH MPKI: 0
L2C WRITEBACK ACCESS:     554589  HIT:     554585  MISS:          4  HIT %:    99.9993  MISS %: 0.000721255   MPKI: 0.00016
L2C LOAD TRANSLATION ACCESS:     638806  HIT:     219492  MISS:     419314  HIT %:    34.3597  MISS %:    65.6403   MPKI: 16.7726
L2C TRANSLATION FROM L1D PREFETCHER ACCESS:        238  HIT:          0  MISS:        238  HIT %:          0  MISS %:        100   MPKI: 0.00952
L2C PREFETCH  REQUESTED:          0  ISSUED:          0  USEFUL:       2520  USELESS:    1872906
L2C USEFUL LOAD PREFETCHES:       2520 PREFETCH ISSUED TO LOWER LEVEL:    1880582  ACCURACY: 0.134001
L2C TIMELY PREFETCHES:       2520 LATE PREFETCHES: 0 DROPPED PREFETCHES: 0
L2C PREFETCHES SAME FILL-ORIGIN LEVEL: 0 DIFFERENT FILL-ORIGIN LEVEL: 0
L2C AVERAGE MISS LATENCY: 76.0791 cycles
L2C RQ	ACCESS:    1854864	FORWARD:          0	MERGED:          0	TO_CACHE:    1854864
L2C WQ	ACCESS:     554589	FORWARD:          0	MERGED:          0	TO_CACHE:     554589
L2C PQ	ACCESS:    2207101	FORWARD:          0	MERGED:          0	TO_CACHE:    2207101

L2C Instructions Evicting Data 0
L2C Translations Evicting Data 338690
L2C Data Evicting Data 2449810
L2C Instructions Evicting Instructions 0
L2C Translations Evicting Instructions 0
L2C Data Evicting Instructions 0
L2C Instructions Evicting Translations 0
L2C Translations Evicting Translations 80862
L2C Data Evicting Translations 340575
L2C Dense regions hint from L2: 0
PSCL5 TOTAL     ACCESS:     562096  HIT:     562096  MISS:          0  HIT %:        100  MISS %:          0   MPKI: 0
PSCL5 LOAD TRANSLATION ACCESS:     561977  HIT:     561977  MISS:          0  HIT %:        100  MISS %:          0   MPKI: 0
PSCL5 TRANSLATION FROM L1D PREFETCHER ACCESS:        119  HIT:        119  MISS:          0  HIT %:        100  MISS %:          0   MPKI: 0
PSCL5 PREFETCH  REQUESTED:          0  ISSUED:          0  USEFUL:          0  USELESS:          0
PSCL5 USEFUL LOAD PREFETCHES:          0 PREFETCH ISSUED TO LOWER LEVEL:          0  ACCURACY: -nan
PSCL5 TIMELY PREFETCHES:          0 LATE PREFETCHES: 0 DROPPED PREFETCHES: 0
PSCL5 PREFETCHES SAME FILL-ORIGIN LEVEL: 0 DIFFERENT FILL-ORIGIN LEVEL: 0

PSCL4 TOTAL     ACCESS:     562096  HIT:     562096  MISS:          0  HIT %:        100  MISS %:          0   MPKI: 0
PSCL4 LOAD TRANSLATION ACCESS:     561977  HIT:     561977  MISS:          0  HIT %:        100  MISS %:          0   MPKI: 0
PSCL4 TRANSLATION FROM L1D PREFETCHER ACCESS:        119  HIT:        119  MISS:          0  HIT %:        100  MISS %:          0   MPKI: 0
PSCL4 PREFETCH  REQUESTED:          0  ISSUED:          0  USEFUL:          0  USELESS:          0
PSCL4 USEFUL LOAD PREFETCHES:          0 PREFETCH ISSUED TO LOWER LEVEL:          0  ACCURACY: -nan
PSCL4 TIMELY PREFETCHES:          0 LATE PREFETCHES: 0 DROPPED PREFETCHES: 0
PSCL4 PREFETCHES SAME FILL-ORIGIN LEVEL: 0 DIFFERENT FILL-ORIGIN LEVEL: 0

PSCL3 TOTAL     ACCESS:     562096  HIT:     562096  MISS:          0  HIT %:        100  MISS %:          0   MPKI: 0
PSCL3 LOAD TRANSLATION ACCESS:     561977  HIT:     561977  MISS:          0  HIT %:        100  MISS %:          0   MPKI: 0
PSCL3 TRANSLATION FROM L1D PREFETCHER ACCESS:        119  HIT:        119  MISS:          0  HIT %:        100  MISS %:          0   MPKI: 0
PSCL3 PREFETCH  REQUESTED:          0  ISSUED:          0  USEFUL:          0  USELESS:          0
PSCL3 USEFUL LOAD PREFETCHES:          0 PREFETCH ISSUED TO LOWER LEVEL:          0  ACCURACY: -nan
PSCL3 TIMELY PREFETCHES:          0 LATE PREFETCHES: 0 DROPPED PREFETCHES: 0
PSCL3 PREFETCHES SAME FILL-ORIGIN LEVEL: 0 DIFFERENT FILL-ORIGIN LEVEL: 0

PSCL2 TOTAL     ACCESS:     562095  HIT:     485146  MISS:      76949  HIT %:    86.3103  MISS %:    13.6897   MPKI: 3.07796
PSCL2 LOAD TRANSLATION ACCESS:     562095  HIT:     485146  MISS:      76949  HIT %:    86.3103  MISS %:    13.6897   MPKI: 3.07796
PSCL2 PREFETCH  REQUESTED:          0  ISSUED:          0  USEFUL:          0  USELESS:          0
PSCL2 USEFUL LOAD PREFETCHES:          0 PREFETCH ISSUED TO LOWER LEVEL:          0  ACCURACY: -nan
PSCL2 TIMELY PREFETCHES:          0 LATE PREFETCHES: 0 DROPPED PREFETCHES: 0
PSCL2 PREFETCHES SAME FILL-ORIGIN LEVEL: 0 DIFFERENT FILL-ORIGIN LEVEL: 0

LLC TOTAL     ACCESS:    3767272  HIT:    3020524  MISS:     746748  HIT %:     80.178  MISS %:     19.822   MPKI: 29.8699
LLC LOAD      ACCESS:     859494  HIT:     562591  MISS:     296903  HIT %:    65.4561  MISS %:    34.5439   MPKI: 11.8761
LLC RFO       ACCESS:      50312  HIT:      49533  MISS:        779  HIT %:    98.4517  MISS %:    1.54834   MPKI: 0.03116
LLC PREFETCH  ACCESS:    1880579  HIT:    1446521  MISS:     434058  HIT %:    76.9189  MISS %:    23.0811   MPKI: 17.3623
AGUS PREFETCH L1 MISS: 0
LLC WRITEBACK ACCESS:     557335  HIT:     557335  MISS:          0  HIT %:        100  MISS %:          0   MPKI: 0
LLC LOAD TRANSLATION ACCESS:     419314  HIT:     404310  MISS:      15004  HIT %:    96.4218  MISS %:    3.57823   MPKI: 0.60016
LLC TRANSLATION FROM L1D PREFETCHER ACCESS:        238  HIT:        234  MISS:          4  HIT %:    98.3193  MISS %:    1.68067   MPKI: 0.00016
LLC PREFETCH  REQUESTED:          0  ISSUED:          0  USEFUL:     350271  USELESS:      69253
LLC USEFUL LOAD PREFETCHES:     350271 PREFETCH ISSUED TO LOWER LEVEL:     434061  ACCURACY: 80.6963
LLC TIMELY PREFETCHES:     350271 LATE PREFETCHES: 0 DROPPED PREFETCHES: 0
LLC PREFETCHES SAME FILL-ORIGIN LEVEL: 0 DIFFERENT FILL-ORIGIN LEVEL: 0
LLC AVERAGE MISS LATENCY: 195.812 cycles
LLC RQ	ACCESS:    1329358	FORWARD:          0	MERGED:          0	TO_CACHE:    1329358
LLC WQ	ACCESS:     557335	FORWARD:          0	MERGED:          0	TO_CACHE:     557335
LLC PQ	ACCESS:    1880582	FORWARD:          0	MERGED:          0	TO_CACHE:    1880582

LLC Dense regions hint to LLC: 0

RAW hits: 494686
Loads Generated: 6650541
Loads sent to L1D: 6155853
Stores Generated: 1108674
Stores sent to L1D: 1108674
Major fault: 0 Minor fault: 23115
Allocated PAGES: 23115
CPU 0 L1D optimized prefetcher final stats
Degree: 5

DRAM Statistics
 CHANNEL 0
 RQ ROW_BUFFER_HIT:       8473  ROW_BUFFER_MISS:     738275
 DBUS_CONGESTED:         10
 WQ ROW_BUFFER_HIT:     184407  ROW_BUFFER_MISS:     384166  FULL:          0

 AVG_CONGESTED_CYCLE: 6
 All warmup complete: 2
Channel 0 Bank busy for read cycles: 0
Channel 0 Bank busy for write cycles: 0
Channel 0
Rank 0
0banks busy for read cycles: 1099932
0banks busy for write cycles: 24509
1banks busy for read cycles: 15787006
1banks busy for write cycles: 1968792
2banks busy for read cycles: 14767523
2banks busy for write cycles: 2897108
3banks busy for read cycles: 10810332
3banks busy for write cycles: 4305657
4banks busy for read cycles: 4232512
4banks busy for write cycles: 3609122
5banks busy for read cycles: 841228
5banks busy for write cycles: 1440821
6banks busy for read cycles: 1204263
6banks busy for write cycles: 674057
7banks busy for read cycles: 518038
7banks busy for write cycles: 885791
8banks busy for read cycles: 251864
8banks busy for write cycles: 9729546

CPU 0 Branch Prediction Accuracy: 99.9685% MPKI: 0.04912 Average ROB Occupancy at Mispredict: 155.546
Branch types
NOT_BRANCH: 21105674 84.4227%
BRANCH_DIRECT_JUMP: 568311 2.27324%
BRANCH_INDIRECT: 0 0%
BRANCH_CONDITIONAL: 2217340 8.86936%
BRANCH_DIRECT_CALL: 554335 2.21734%
BRANCH_INDIRECT_CALL: 0 0%
BRANCH_RETURN: 554335 2.21734%
BRANCH_OTHER: 0 0%

DRAM PAGES: 1048576
Allocated PAGES: 23115
