
*** ChampSim Multicore Out-of-Order Simulator ***

Warmup Instructions: 25000000
Simulation Instructions: 25000000
Number of CPUs: 1
LLC sets: 2048
LLC ways: 16
Off-chip DRAM Size: 4096 MB Channels: 1 Width: 64-bit Data Rate: 6400 MT/s
CPU 0 runs /home/yashas/CS683/pa2-lehra-do-prefetcher-wronganswersonly/traces/trace1.champsimtrace.xz
.xz
CPU 0 Bimodal branch predictor
BTB has LRU replacement policy
ITLB has LRU replacement policy
DTLB has LRU replacement policy
STLB has LRU replacement policy
L1I has LRU replacement policy
CPU 0 L1D Optimized prefetcher
L1D has LRU replacement policy
L2C has LRU replacement policy
LLC has LRU replacement policy
Heartbeat CPU 0 instructions: 10000003 cycles: 2830061 heartbeat IPC: 3.53349 cumulative IPC: 3.53349 (Simulation time: 0 hr 0 min 15 sec) 
Heartbeat CPU 0 instructions: 20000003 cycles: 5650207 heartbeat IPC: 3.54592 cumulative IPC: 3.53969 (Simulation time: 0 hr 0 min 31 sec) 

Warmup complete CPU 0 instructions: 25000004 cycles: 7064357 (Simulation time: 0 hr 0 min 38 sec) 

IP_STRIDE Accuracy is 20.9302 
Switching to CPLX L1D prefetcher
Heartbeat CPU 0 instructions: 30000002 cycles: 23988671 heartbeat IPC: 0.545302 cumulative IPC: 0.295433 (Simulation time: 0 hr 0 min 59 sec) 
CPLX Accuracy is 8.20312 
Switching to NL L1D prefetcher
NL Accuracy is 192.549 
Prefetcher set to NL
Heartbeat CPU 0 instructions: 40000002 cycles: 57258516 heartbeat IPC: 0.300572 cumulative IPC: 0.29884 (Simulation time: 0 hr 1 min 44 sec) 
Heartbeat CPU 0 instructions: 50000000 cycles: 81552299 heartbeat IPC: 0.411628 cumulative IPC: 0.335625 (Simulation time: 0 hr 2 min 29 sec) 
Finished CPU 0 instructions: 25000000 cycles: 74487943 cumulative IPC: 0.335625 (Simulation time: 0 hr 2 min 29 sec) 

ChampSim completed all CPUs

Region of Interest Statistics

CPU 0 cumulative IPC: 0.335625 instructions: 25000000 cycles: 74487943
ITLB TOTAL     ACCESS:    4467933  HIT:    4467933  MISS:          0  HIT %:        100  MISS %:          0   MPKI: 0
ITLB LOAD TRANSLATION ACCESS:    4467933  HIT:    4467933  MISS:          0  HIT %:        100  MISS %:          0   MPKI: 0
ITLB PREFETCH  REQUESTED:          0  ISSUED:          0  USEFUL:          0  USELESS:          0
ITLB USEFUL LOAD PREFETCHES:          0 PREFETCH ISSUED TO LOWER LEVEL:          0  ACCURACY: -nan
ITLB TIMELY PREFETCHES:          0 LATE PREFETCHES: 0 DROPPED PREFETCHES: 0
ITLB PREFETCHES SAME FILL-ORIGIN LEVEL: 0 DIFFERENT FILL-ORIGIN LEVEL: 0
ITLB AVERAGE MISS LATENCY: -nan cycles
ITLB RQ	ACCESS:    4813960	FORWARD:          0	MERGED:     346028	TO_CACHE:    4467932

DTLB TOTAL     ACCESS:    3754468  HIT:    3091760  MISS:     662708  HIT %:    82.3488  MISS %:    17.6512   MPKI: 26.5083
DTLB LOAD TRANSLATION ACCESS:    3754468  HIT:    3091760  MISS:     662708  HIT %:    82.3488  MISS %:    17.6512   MPKI: 26.5083
DTLB PREFETCH  REQUESTED:          0  ISSUED:          0  USEFUL:          0  USELESS:          0
DTLB USEFUL LOAD PREFETCHES:          0 PREFETCH ISSUED TO LOWER LEVEL:          0  ACCURACY: -nan
DTLB TIMELY PREFETCHES:          0 LATE PREFETCHES: 0 DROPPED PREFETCHES: 0
DTLB PREFETCHES SAME FILL-ORIGIN LEVEL: 0 DIFFERENT FILL-ORIGIN LEVEL: 0
DTLB AVERAGE MISS LATENCY: 67.3416 cycles
DTLB RQ	ACCESS:    4351421	FORWARD:          0	MERGED:     590737	TO_CACHE:    3760684

STLB TOTAL     ACCESS:    2048441  HIT:    1486354  MISS:     562087  HIT %:    72.5603  MISS %:    27.4397   MPKI: 22.4835
STLB LOAD TRANSLATION ACCESS:     662708  HIT:     100731  MISS:     561977  HIT %:    15.1999  MISS %:    84.8001   MPKI: 22.4791
STLB TRANSLATION FROM L1D PREFETCHER ACCESS:    1385733  HIT:    1385623  MISS:        110  HIT %:    99.9921  MISS %: 0.00793804   MPKI: 0.0044
STLB PREFETCH  REQUESTED:          0  ISSUED:          0  USEFUL:        110  USELESS:          0
STLB USEFUL LOAD PREFETCHES:        110 PREFETCH ISSUED TO LOWER LEVEL:          0  ACCURACY: inf
STLB TIMELY PREFETCHES:        110 LATE PREFETCHES: 0 DROPPED PREFETCHES: 0
STLB PREFETCHES SAME FILL-ORIGIN LEVEL: 0 DIFFERENT FILL-ORIGIN LEVEL: 0
STLB AVERAGE MISS LATENCY: 68.6732 cycles
STLB RQ	ACCESS:    7191963	FORWARD:          0	MERGED:    5143517	TO_CACHE:    2048446

STLB Hit, L1D data hit: 0
STLB Hit, L2C data hit: 0
STLB Hit, LLC data hit: 0
STLB Hit, LLC data miss: 0
STLB STLB hints to L2: 0
L1D TOTAL     ACCESS:   10585449  HIT:    7332533  MISS:    3252916  HIT %:    69.2699  MISS %:    30.7301   MPKI: 130.117
L1D LOAD      ACCESS:    3221702  HIT:    2071384  MISS:    1150318  HIT %:    64.2947  MISS %:    35.7053   MPKI: 46.0127
L1D RFO       ACCESS:    1108664  HIT:    1039304  MISS:      69360  HIT %:    93.7438  MISS %:    6.25618   MPKI: 2.7744
L1D PREFETCH  ACCESS:    6255083  HIT:    4221845  MISS:    2033238  HIT %:    67.4946  MISS %:    32.5054   MPKI: 81.3295
AGUS PREFETCH L1 MISS: 0
L1D PREFETCH  REQUESTED:   15166735  ISSUED:   15121382  USEFUL:      10747  USELESS:    2021912
L1D USEFUL LOAD PREFETCHES:      10747 PREFETCH ISSUED TO LOWER LEVEL:    2035662  ACCURACY: 0.527936
L1D TIMELY PREFETCHES:      10747 LATE PREFETCHES: 2421 DROPPED PREFETCHES: 0
L1D PREFETCHES SAME FILL-ORIGIN LEVEL: 2035662 DIFFERENT FILL-ORIGIN LEVEL: 0
L1D AVERAGE MISS LATENCY: 82.0576 cycles
L1D RQ	ACCESS:    6155920	FORWARD:          0	MERGED:    2854251	TO_CACHE:    3242755
L1D WQ	ACCESS:    1108674	FORWARD:      58914	MERGED:          8	TO_CACHE:    1108666
L1D PQ	ACCESS:    8592131	FORWARD:          0	MERGED:    2062880	TO_CACHE:    6529251

L1D UNIQUE REGIONS ACCESSED: 0
L1D REGIONS CONFLICTS: 0
L1D Cross Page Prefetch Requests: 0
L1D Same Page Prefetch Requests: 8592131
L1D ROI Sum of L1D PQ occupancy: 91209354
L1D PREFETCHES PUSHED FROM L2C: 0
L1I TOTAL     ACCESS:    4813960  HIT:    4813960  MISS:          0  HIT %:        100  MISS %:          0   MPKI: 0
L1I LOAD      ACCESS:    4813960  HIT:    4813960  MISS:          0  HIT %:        100  MISS %:          0   MPKI: 0
L1I PREFETCH  REQUESTED:          0  ISSUED:          0  USEFUL:          0  USELESS:          0
L1I USEFUL LOAD PREFETCHES:          0 PREFETCH ISSUED TO LOWER LEVEL:          0  ACCURACY: -nan
L1I TIMELY PREFETCHES:          0 LATE PREFETCHES: 0 DROPPED PREFETCHES: 0
L1I PREFETCHES SAME FILL-ORIGIN LEVEL: 0 DIFFERENT FILL-ORIGIN LEVEL: 0
L1I AVERAGE MISS LATENCY: -nan cycles
L1I RQ	ACCESS:    7231632	FORWARD:          0	MERGED:    2417672	TO_CACHE:    4813960

BTB TOTAL     ACCESS:    3283969  HIT:    3283961  MISS:          8  HIT %:    99.9998  MISS %: 0.000243608   MPKI: 0.00032
BTB BRANCH_DIRECT_JUMP	ACCESS:     568311  HIT:     568309  MISS:          2
BTB BRANCH_INDIRECT	ACCESS:          0  HIT:          0  MISS:          0
BTB BRANCH_CONDITIONAL	ACCESS:    1606988  HIT:    1606984  MISS:          4
BTB BRANCH_DIRECT_CALL	ACCESS:     554335  HIT:     554334  MISS:          1
BTB BRANCH_INDIRECT_CALL	ACCESS:          0  HIT:          0  MISS:          0
BTB BRANCH_RETURN	ACCESS:     554335  HIT:     554334  MISS:          1
BTB BRANCH_OTHER ACCESS:          0  HIT:          0  MISS:          0

L2C TOTAL     ACCESS:    4446532  HIT:    1425097  MISS:    3021435  HIT %:    32.0496  MISS %:    67.9504   MPKI: 120.857
L2C LOAD      ACCESS:    1147897  HIT:     297330  MISS:     850567  HIT %:    25.9021  MISS %:    74.0979   MPKI: 34.0227
L2C DATA LOAD MPKI: 34.0227
L2C INSTRUCTION LOAD MPKI: 0
L2C RFO       ACCESS:      69360  HIT:      20020  MISS:      49340  HIT %:    28.8639  MISS %:    71.1361   MPKI: 1.9736
L2C PREFETCH  ACCESS:    2035659  HIT:     326480  MISS:    1709179  HIT %:     16.038  MISS %:     83.962   MPKI: 68.3672
AGUS PREFETCH L1 MISS: 0
L2C DATA PREFETCH MPKI: 68.3672
L2C INSTRUCTION PREFETCH MPKI: 0
L2C WRITEBACK ACCESS:     554589  HIT:     554585  MISS:          4  HIT %:    99.9993  MISS %: 0.000721255   MPKI: 0.00016
L2C LOAD TRANSLATION ACCESS:     638807  HIT:     226682  MISS:     412125  HIT %:    35.4852  MISS %:    64.5148   MPKI: 16.485
L2C TRANSLATION FROM L1D PREFETCHER ACCESS:        220  HIT:          0  MISS:        220  HIT %:          0  MISS %:        100   MPKI: 0.0088
L2C PREFETCH  REQUESTED:          0  ISSUED:          0  USEFUL:       2518  USELESS:    1701490
L2C USEFUL LOAD PREFETCHES:       2518 PREFETCH ISSUED TO LOWER LEVEL:    1709182  ACCURACY: 0.147322
L2C TIMELY PREFETCHES:       2518 LATE PREFETCHES: 0 DROPPED PREFETCHES: 0
L2C PREFETCHES SAME FILL-ORIGIN LEVEL: 0 DIFFERENT FILL-ORIGIN LEVEL: 0
L2C AVERAGE MISS LATENCY: 76.0256 cycles
L2C RQ	ACCESS:    1856285	FORWARD:          0	MERGED:          0	TO_CACHE:    1856285
L2C WQ	ACCESS:     554589	FORWARD:          0	MERGED:          0	TO_CACHE:     554589
L2C PQ	ACCESS:    2035662	FORWARD:          0	MERGED:          0	TO_CACHE:    2035662

L2C Instructions Evicting Data 0
L2C Translations Evicting Data 328536
L2C Data Evicting Data 2278665
L2C Instructions Evicting Instructions 0
L2C Translations Evicting Instructions 0
L2C Data Evicting Instructions 0
L2C Instructions Evicting Translations 0
L2C Translations Evicting Translations 83809
L2C Data Evicting Translations 330421
L2C Dense regions hint from L2: 0
PSCL5 TOTAL     ACCESS:     562089  HIT:     562089  MISS:          0  HIT %:        100  MISS %:          0   MPKI: 0
PSCL5 LOAD TRANSLATION ACCESS:     561979  HIT:     561979  MISS:          0  HIT %:        100  MISS %:          0   MPKI: 0
PSCL5 TRANSLATION FROM L1D PREFETCHER ACCESS:        110  HIT:        110  MISS:          0  HIT %:        100  MISS %:          0   MPKI: 0
PSCL5 PREFETCH  REQUESTED:          0  ISSUED:          0  USEFUL:          0  USELESS:          0
PSCL5 USEFUL LOAD PREFETCHES:          0 PREFETCH ISSUED TO LOWER LEVEL:          0  ACCURACY: -nan
PSCL5 TIMELY PREFETCHES:          0 LATE PREFETCHES: 0 DROPPED PREFETCHES: 0
PSCL5 PREFETCHES SAME FILL-ORIGIN LEVEL: 0 DIFFERENT FILL-ORIGIN LEVEL: 0

PSCL4 TOTAL     ACCESS:     562089  HIT:     562089  MISS:          0  HIT %:        100  MISS %:          0   MPKI: 0
PSCL4 LOAD TRANSLATION ACCESS:     561979  HIT:     561979  MISS:          0  HIT %:        100  MISS %:          0   MPKI: 0
PSCL4 TRANSLATION FROM L1D PREFETCHER ACCESS:        110  HIT:        110  MISS:          0  HIT %:        100  MISS %:          0   MPKI: 0
PSCL4 PREFETCH  REQUESTED:          0  ISSUED:          0  USEFUL:          0  USELESS:          0
PSCL4 USEFUL LOAD PREFETCHES:          0 PREFETCH ISSUED TO LOWER LEVEL:          0  ACCURACY: -nan
PSCL4 TIMELY PREFETCHES:          0 LATE PREFETCHES: 0 DROPPED PREFETCHES: 0
PSCL4 PREFETCHES SAME FILL-ORIGIN LEVEL: 0 DIFFERENT FILL-ORIGIN LEVEL: 0

PSCL3 TOTAL     ACCESS:     562089  HIT:     562089  MISS:          0  HIT %:        100  MISS %:          0   MPKI: 0
PSCL3 LOAD TRANSLATION ACCESS:     561979  HIT:     561979  MISS:          0  HIT %:        100  MISS %:          0   MPKI: 0
PSCL3 TRANSLATION FROM L1D PREFETCHER ACCESS:        110  HIT:        110  MISS:          0  HIT %:        100  MISS %:          0   MPKI: 0
PSCL3 PREFETCH  REQUESTED:          0  ISSUED:          0  USEFUL:          0  USELESS:          0
PSCL3 USEFUL LOAD PREFETCHES:          0 PREFETCH ISSUED TO LOWER LEVEL:          0  ACCURACY: -nan
PSCL3 TIMELY PREFETCHES:          0 LATE PREFETCHES: 0 DROPPED PREFETCHES: 0
PSCL3 PREFETCHES SAME FILL-ORIGIN LEVEL: 0 DIFFERENT FILL-ORIGIN LEVEL: 0

PSCL2 TOTAL     ACCESS:     562088  HIT:     485149  MISS:      76939  HIT %:    86.3119  MISS %:    13.6881   MPKI: 3.07756
PSCL2 LOAD TRANSLATION ACCESS:     562088  HIT:     485149  MISS:      76939  HIT %:    86.3119  MISS %:    13.6881   MPKI: 3.07756
PSCL2 PREFETCH  REQUESTED:          0  ISSUED:          0  USEFUL:          0  USELESS:          0
PSCL2 USEFUL LOAD PREFETCHES:          0 PREFETCH ISSUED TO LOWER LEVEL:          0  ACCURACY: -nan
PSCL2 TIMELY PREFETCHES:          0 LATE PREFETCHES: 0 DROPPED PREFETCHES: 0
PSCL2 PREFETCHES SAME FILL-ORIGIN LEVEL: 0 DIFFERENT FILL-ORIGIN LEVEL: 0

LLC TOTAL     ACCESS:    3578766  HIT:    2878675  MISS:     700091  HIT %:    80.4376  MISS %:    19.5624   MPKI: 28.0036
LLC LOAD      ACCESS:     850567  HIT:     536753  MISS:     313814  HIT %:    63.1053  MISS %:    36.8947   MPKI: 12.5526
LLC RFO       ACCESS:      49340  HIT:      49028  MISS:        312  HIT %:    99.3677  MISS %:   0.632347   MPKI: 0.01248
LLC PREFETCH  ACCESS:    1709179  HIT:    1332615  MISS:     376564  HIT %:    77.9681  MISS %:    22.0319   MPKI: 15.0626
AGUS PREFETCH L1 MISS: 0
LLC WRITEBACK ACCESS:     557335  HIT:     557335  MISS:          0  HIT %:        100  MISS %:          0   MPKI: 0
LLC LOAD TRANSLATION ACCESS:     412125  HIT:     402728  MISS:       9397  HIT %:    97.7199  MISS %:    2.28013   MPKI: 0.37588
LLC TRANSLATION FROM L1D PREFETCHER ACCESS:        220  HIT:        216  MISS:          4  HIT %:    98.1818  MISS %:    1.81818   MPKI: 0.00016
LLC PREFETCH  REQUESTED:          0  ISSUED:          0  USEFUL:     327063  USELESS:      34967
LLC USEFUL LOAD PREFETCHES:     327063 PREFETCH ISSUED TO LOWER LEVEL:     376567  ACCURACY: 86.8539
LLC TIMELY PREFETCHES:     327063 LATE PREFETCHES: 0 DROPPED PREFETCHES: 0
LLC PREFETCHES SAME FILL-ORIGIN LEVEL: 0 DIFFERENT FILL-ORIGIN LEVEL: 0
LLC AVERAGE MISS LATENCY: 196.355 cycles
LLC RQ	ACCESS:    1312252	FORWARD:          0	MERGED:          0	TO_CACHE:    1312252
LLC WQ	ACCESS:     557335	FORWARD:          0	MERGED:          0	TO_CACHE:     557335
LLC PQ	ACCESS:    1709182	FORWARD:          0	MERGED:          0	TO_CACHE:    1709182

LLC Dense regions hint to LLC: 0

RAW hits: 494619
Loads Generated: 6650541
Loads sent to L1D: 6155920
Stores Generated: 1108674
Stores sent to L1D: 1108674
Major fault: 0 Minor fault: 23115
Allocated PAGES: 23115
CPU 0 L1D optimized prefetcher final stats
Degree: 5

DRAM Statistics
 CHANNEL 0
 RQ ROW_BUFFER_HIT:       4161  ROW_BUFFER_MISS:     695930
 DBUS_CONGESTED:          5
 WQ ROW_BUFFER_HIT:     182503  ROW_BUFFER_MISS:     386070  FULL:          0

 AVG_CONGESTED_CYCLE: 4
 All warmup complete: 2
Channel 0 Bank busy for read cycles: 0
Channel 0 Bank busy for write cycles: 0
Channel 0
Rank 0
0banks busy for read cycles: 1301428
0banks busy for write cycles: 28164
1banks busy for read cycles: 15929845
1banks busy for write cycles: 2221202
2banks busy for read cycles: 14687383
2banks busy for write cycles: 3199141
3banks busy for read cycles: 10648543
3banks busy for write cycles: 4681476
4banks busy for read cycles: 3906921
4banks busy for write cycles: 3858977
5banks busy for read cycles: 520677
5banks busy for write cycles: 1520736
6banks busy for read cycles: 899780
6banks busy for write cycles: 679373
7banks busy for read cycles: 374821
7banks busy for write cycles: 780366
8banks busy for read cycles: 214567
8banks busy for write cycles: 9034544

CPU 0 Branch Prediction Accuracy: 99.9685% MPKI: 0.04912 Average ROB Occupancy at Mispredict: 155.507
Branch types
NOT_BRANCH: 21105674 84.4227%
BRANCH_DIRECT_JUMP: 568311 2.27324%
BRANCH_INDIRECT: 0 0%
BRANCH_CONDITIONAL: 2217340 8.86936%
BRANCH_DIRECT_CALL: 554335 2.21734%
BRANCH_INDIRECT_CALL: 0 0%
BRANCH_RETURN: 554335 2.21734%
BRANCH_OTHER: 0 0%

DRAM PAGES: 1048576
Allocated PAGES: 23115
