
*** ChampSim Multicore Out-of-Order Simulator ***

Warmup Instructions: 25000000
Simulation Instructions: 25000000
Number of CPUs: 1
LLC sets: 2048
LLC ways: 16
Off-chip DRAM Size: 4096 MB Channels: 1 Width: 64-bit Data Rate: 6400 MT/s
CPU 0 runs /home/yashas/CS683/pa2-lehra-do-prefetcher-wronganswersonly/traces/trace2.champsimtrace.xz
.xz
CPU 0 Bimodal branch predictor
BTB has LRU replacement policy
ITLB has LRU replacement policy
DTLB has LRU replacement policy
STLB has LRU replacement policy
L1I has LRU replacement policy
CPU 0 L1D Complex-Stride prefetcher
L1D has LRU replacement policy
L2C has LRU replacement policy
LLC has LRU replacement policy
Heartbeat CPU 0 instructions: 10000002 cycles: 3778666 heartbeat IPC: 2.64644 cumulative IPC: 2.64644 (Simulation time: 0 hr 0 min 20 sec) 
Heartbeat CPU 0 instructions: 20000001 cycles: 7558693 heartbeat IPC: 2.64548 cumulative IPC: 2.64596 (Simulation time: 0 hr 0 min 40 sec) 

Warmup complete CPU 0 instructions: 25000001 cycles: 9448429 (Simulation time: 0 hr 0 min 49 sec) 

Heartbeat CPU 0 instructions: 30000001 cycles: 48299963 heartbeat IPC: 0.245451 cumulative IPC: 0.128695 (Simulation time: 0 hr 1 min 18 sec) 
Heartbeat CPU 0 instructions: 40000002 cycles: 125317003 heartbeat IPC: 0.129841 cumulative IPC: 0.129457 (Simulation time: 0 hr 2 min 14 sec) 
Heartbeat CPU 0 instructions: 50000000 cycles: 199108852 heartbeat IPC: 0.135516 cumulative IPC: 0.131815 (Simulation time: 0 hr 3 min 9 sec) 
Finished CPU 0 instructions: 25000000 cycles: 189660445 cumulative IPC: 0.131815 (Simulation time: 0 hr 3 min 9 sec) 

ChampSim completed all CPUs

Region of Interest Statistics

CPU 0 cumulative IPC: 0.131815 instructions: 25000000 cycles: 189660445
ITLB TOTAL     ACCESS:    5383921  HIT:    5383921  MISS:          0  HIT %:        100  MISS %:          0   MPKI: 0
ITLB LOAD TRANSLATION ACCESS:    5383921  HIT:    5383921  MISS:          0  HIT %:        100  MISS %:          0   MPKI: 0
ITLB PREFETCH  REQUESTED:          0  ISSUED:          0  USEFUL:          0  USELESS:          0
ITLB USEFUL LOAD PREFETCHES:          0 PREFETCH ISSUED TO LOWER LEVEL:          0  ACCURACY: -nan
ITLB TIMELY PREFETCHES:          0 LATE PREFETCHES: 0 DROPPED PREFETCHES: 0
ITLB PREFETCHES SAME FILL-ORIGIN LEVEL: 0 DIFFERENT FILL-ORIGIN LEVEL: 0
ITLB AVERAGE MISS LATENCY: -nan cycles
ITLB RQ	ACCESS:    5469353	FORWARD:          0	MERGED:      85432	TO_CACHE:    5383921

DTLB TOTAL     ACCESS:    3870540  HIT:    3836527  MISS:      34013  HIT %:    99.1212  MISS %:   0.878766   MPKI: 1.36052
DTLB LOAD TRANSLATION ACCESS:    3870540  HIT:    3836527  MISS:      34013  HIT %:    99.1212  MISS %:   0.878766   MPKI: 1.36052
DTLB PREFETCH  REQUESTED:          0  ISSUED:          0  USEFUL:          0  USELESS:          0
DTLB USEFUL LOAD PREFETCHES:          0 PREFETCH ISSUED TO LOWER LEVEL:          0  ACCURACY: -nan
DTLB TIMELY PREFETCHES:          0 LATE PREFETCHES: 0 DROPPED PREFETCHES: 0
DTLB PREFETCHES SAME FILL-ORIGIN LEVEL: 0 DIFFERENT FILL-ORIGIN LEVEL: 0
DTLB AVERAGE MISS LATENCY: 106.341 cycles
DTLB RQ	ACCESS:    4554126	FORWARD:          0	MERGED:     683465	TO_CACHE:    3870661

STLB TOTAL     ACCESS:    1041954  HIT:    1009263  MISS:      32691  HIT %:    96.8625  MISS %:    3.13747   MPKI: 1.30764
STLB LOAD TRANSLATION ACCESS:      34013  HIT:       1325  MISS:      32688  HIT %:    3.89557  MISS %:    96.1044   MPKI: 1.30752
STLB TRANSLATION FROM L1D PREFETCHER ACCESS:    1007941  HIT:    1007938  MISS:          3  HIT %:    99.9997  MISS %: 0.000297636   MPKI: 0.00012
STLB PREFETCH  REQUESTED:          0  ISSUED:          0  USEFUL:          1  USELESS:          2
STLB USEFUL LOAD PREFETCHES:          1 PREFETCH ISSUED TO LOWER LEVEL:          0  ACCURACY: inf
STLB TIMELY PREFETCHES:          1 LATE PREFETCHES: 0 DROPPED PREFETCHES: 0
STLB PREFETCHES SAME FILL-ORIGIN LEVEL: 0 DIFFERENT FILL-ORIGIN LEVEL: 0
STLB AVERAGE MISS LATENCY: 101.292 cycles
STLB RQ	ACCESS:    2152999	FORWARD:          0	MERGED:    1111045	TO_CACHE:    1041954

STLB Hit, L1D data hit: 0
STLB Hit, L2C data hit: 0
STLB Hit, LLC data hit: 0
STLB Hit, LLC data miss: 0
STLB STLB hints to L2: 0
L1D TOTAL     ACCESS:    5129972  HIT:    3377095  MISS:    1752877  HIT %:    65.8307  MISS %:    34.1693   MPKI: 70.1151
L1D LOAD      ACCESS:    3767533  HIT:    2444558  MISS:    1322975  HIT %:    64.8848  MISS %:    35.1152   MPKI: 52.919
L1D RFO       ACCESS:     333878  HIT:     333160  MISS:        718  HIT %:     99.785  MISS %:   0.215049   MPKI: 0.02872
L1D PREFETCH  ACCESS:    1028561  HIT:     599377  MISS:     429184  HIT %:    58.2734  MISS %:    41.7266   MPKI: 17.1674
AGUS PREFETCH L1 MISS: 0
L1D PREFETCH  REQUESTED:    4651767  ISSUED:    4651767  USEFUL:     426146  USELESS:       3037
L1D USEFUL LOAD PREFETCHES:     426146 PREFETCH ISSUED TO LOWER LEVEL:     658484  ACCURACY: 64.7162
L1D TIMELY PREFETCHES:     426146 LATE PREFETCHES: 229300 DROPPED PREFETCHES: 0
L1D PREFETCHES SAME FILL-ORIGIN LEVEL: 658484 DIFFERENT FILL-ORIGIN LEVEL: 0
L1D AVERAGE MISS LATENCY: 120.864 cycles
L1D RQ	ACCESS:    8972646	FORWARD:          0	MERGED:    4750976	TO_CACHE:    4220244
L1D WQ	ACCESS:     370377	FORWARD:       1426	MERGED:      36495	TO_CACHE:     333882
L1D PQ	ACCESS:    2532781	FORWARD:          0	MERGED:     413795	TO_CACHE:    2118986

L1D UNIQUE REGIONS ACCESSED: 0
L1D REGIONS CONFLICTS: 0
L1D Cross Page Prefetch Requests: 0
L1D Same Page Prefetch Requests: 4477307
L1D ROI Sum of L1D PQ occupancy: 28231462
L1D PREFETCHES PUSHED FROM L2C: 0
L1I TOTAL     ACCESS:    5469352  HIT:    5469352  MISS:          0  HIT %:        100  MISS %:          0   MPKI: 0
L1I LOAD      ACCESS:    5469352  HIT:    5469352  MISS:          0  HIT %:        100  MISS %:          0   MPKI: 0
L1I PREFETCH  REQUESTED:          0  ISSUED:          0  USEFUL:          0  USELESS:          0
L1I USEFUL LOAD PREFETCHES:          0 PREFETCH ISSUED TO LOWER LEVEL:          0  ACCURACY: -nan
L1I TIMELY PREFETCHES:          0 LATE PREFETCHES: 0 DROPPED PREFETCHES: 0
L1I PREFETCHES SAME FILL-ORIGIN LEVEL: 0 DIFFERENT FILL-ORIGIN LEVEL: 0
L1I AVERAGE MISS LATENCY: -nan cycles
L1I RQ	ACCESS:    8028554	FORWARD:          0	MERGED:    2559201	TO_CACHE:    5469353

BTB TOTAL     ACCESS:    5953193  HIT:    5953095  MISS:         98  HIT %:    99.9984  MISS %: 0.00164618   MPKI: 0.00392
BTB BRANCH_DIRECT_JUMP	ACCESS:      85874  HIT:      85848  MISS:         26
BTB BRANCH_INDIRECT	ACCESS:          0  HIT:          0  MISS:          0
BTB BRANCH_CONDITIONAL	ACCESS:    5783213  HIT:    5783164  MISS:         49
BTB BRANCH_DIRECT_CALL	ACCESS:      42053  HIT:      42043  MISS:         10
BTB BRANCH_INDIRECT_CALL	ACCESS:          0  HIT:          0  MISS:          0
BTB BRANCH_RETURN	ACCESS:      42053  HIT:      42040  MISS:         13
BTB BRANCH_OTHER ACCESS:          0  HIT:          0  MISS:          0

L2C TOTAL     ACCESS:    1788985  HIT:      30016  MISS:    1758969  HIT %:    1.67782  MISS %:    98.3222   MPKI: 70.3588
L2C LOAD      ACCESS:    1093675  HIT:        938  MISS:    1092737  HIT %:  0.0857659  MISS %:    99.9142   MPKI: 43.7095
L2C DATA LOAD MPKI: 43.7095
L2C INSTRUCTION LOAD MPKI: 0
L2C RFO       ACCESS:        718  HIT:          0  MISS:        718  HIT %:          0  MISS %:        100   MPKI: 0.02872
L2C PREFETCH  ACCESS:     658484  HIT:        465  MISS:     658019  HIT %:  0.0706167  MISS %:    99.9294   MPKI: 26.3208
AGUS PREFETCH L1 MISS: 0
L2C DATA PREFETCH MPKI: 26.3208
L2C INSTRUCTION PREFETCH MPKI: 0
L2C WRITEBACK ACCESS:       2771  HIT:       2765  MISS:          6  HIT %:    99.7835  MISS %:   0.216528   MPKI: 0.00024
L2C LOAD TRANSLATION ACCESS:      33333  HIT:      25848  MISS:       7485  HIT %:    77.5448  MISS %:    22.4552   MPKI: 0.2994
L2C TRANSLATION FROM L1D PREFETCHER ACCESS:          4  HIT:          0  MISS:          4  HIT %:          0  MISS %:        100   MPKI: 0.00016
L2C PREFETCH  REQUESTED:          0  ISSUED:          0  USEFUL:        250  USELESS:     656745
L2C USEFUL LOAD PREFETCHES:        250 PREFETCH ISSUED TO LOWER LEVEL:     658019  ACCURACY: 0.0379928
L2C TIMELY PREFETCHES:        250 LATE PREFETCHES: 0 DROPPED PREFETCHES: 0
L2C PREFETCHES SAME FILL-ORIGIN LEVEL: 0 DIFFERENT FILL-ORIGIN LEVEL: 0
L2C AVERAGE MISS LATENCY: 106.238 cycles
L2C RQ	ACCESS:    1127730	FORWARD:          0	MERGED:          0	TO_CACHE:    1127730
L2C WQ	ACCESS:       2771	FORWARD:          0	MERGED:          0	TO_CACHE:       2771
L2C PQ	ACCESS:     658484	FORWARD:          0	MERGED:          0	TO_CACHE:     658484

L2C Instructions Evicting Data 0
L2C Translations Evicting Data 7464
L2C Data Evicting Data 1744024
L2C Instructions Evicting Instructions 0
L2C Translations Evicting Instructions 0
L2C Data Evicting Instructions 0
L2C Instructions Evicting Translations 0
L2C Translations Evicting Translations 25
L2C Data Evicting Translations 7450
L2C Dense regions hint from L2: 0
PSCL5 TOTAL     ACCESS:      32691  HIT:      32691  MISS:          0  HIT %:        100  MISS %:          0   MPKI: 0
PSCL5 LOAD TRANSLATION ACCESS:      32688  HIT:      32688  MISS:          0  HIT %:        100  MISS %:          0   MPKI: 0
PSCL5 TRANSLATION FROM L1D PREFETCHER ACCESS:          3  HIT:          3  MISS:          0  HIT %:        100  MISS %:          0   MPKI: 0
PSCL5 PREFETCH  REQUESTED:          0  ISSUED:          0  USEFUL:          0  USELESS:          0
PSCL5 USEFUL LOAD PREFETCHES:          0 PREFETCH ISSUED TO LOWER LEVEL:          0  ACCURACY: -nan
PSCL5 TIMELY PREFETCHES:          0 LATE PREFETCHES: 0 DROPPED PREFETCHES: 0
PSCL5 PREFETCHES SAME FILL-ORIGIN LEVEL: 0 DIFFERENT FILL-ORIGIN LEVEL: 0

PSCL4 TOTAL     ACCESS:      32691  HIT:      32691  MISS:          0  HIT %:        100  MISS %:          0   MPKI: 0
PSCL4 LOAD TRANSLATION ACCESS:      32688  HIT:      32688  MISS:          0  HIT %:        100  MISS %:          0   MPKI: 0
PSCL4 TRANSLATION FROM L1D PREFETCHER ACCESS:          3  HIT:          3  MISS:          0  HIT %:        100  MISS %:          0   MPKI: 0
PSCL4 PREFETCH  REQUESTED:          0  ISSUED:          0  USEFUL:          0  USELESS:          0
PSCL4 USEFUL LOAD PREFETCHES:          0 PREFETCH ISSUED TO LOWER LEVEL:          0  ACCURACY: -nan
PSCL4 TIMELY PREFETCHES:          0 LATE PREFETCHES: 0 DROPPED PREFETCHES: 0
PSCL4 PREFETCHES SAME FILL-ORIGIN LEVEL: 0 DIFFERENT FILL-ORIGIN LEVEL: 0

PSCL3 TOTAL     ACCESS:      32691  HIT:      32688  MISS:          3  HIT %:    99.9908  MISS %: 0.00917684   MPKI: 0.00012
PSCL3 LOAD TRANSLATION ACCESS:      32688  HIT:      32685  MISS:          3  HIT %:    99.9908  MISS %: 0.00917768   MPKI: 0.00012
PSCL3 TRANSLATION FROM L1D PREFETCHER ACCESS:          3  HIT:          3  MISS:          0  HIT %:        100  MISS %:          0   MPKI: 0
PSCL3 PREFETCH  REQUESTED:          0  ISSUED:          0  USEFUL:          0  USELESS:          0
PSCL3 USEFUL LOAD PREFETCHES:          0 PREFETCH ISSUED TO LOWER LEVEL:          0  ACCURACY: -nan
PSCL3 TIMELY PREFETCHES:          0 LATE PREFETCHES: 0 DROPPED PREFETCHES: 0
PSCL3 PREFETCHES SAME FILL-ORIGIN LEVEL: 0 DIFFERENT FILL-ORIGIN LEVEL: 0

PSCL2 TOTAL     ACCESS:      32691  HIT:      31950  MISS:        741  HIT %:    97.7333  MISS %:    2.26668   MPKI: 0.02964
PSCL2 LOAD TRANSLATION ACCESS:      32689  HIT:      31948  MISS:        741  HIT %:    97.7332  MISS %:    2.26682   MPKI: 0.02964
PSCL2 TRANSLATION FROM L1D PREFETCHER ACCESS:          2  HIT:          2  MISS:          0  HIT %:        100  MISS %:          0   MPKI: 0
PSCL2 PREFETCH  REQUESTED:          0  ISSUED:          0  USEFUL:          0  USELESS:          0
PSCL2 USEFUL LOAD PREFETCHES:          0 PREFETCH ISSUED TO LOWER LEVEL:          0  ACCURACY: -nan
PSCL2 TIMELY PREFETCHES:          0 LATE PREFETCHES: 0 DROPPED PREFETCHES: 0
PSCL2 PREFETCHES SAME FILL-ORIGIN LEVEL: 0 DIFFERENT FILL-ORIGIN LEVEL: 0

LLC TOTAL     ACCESS:    1761730  HIT:       3179  MISS:    1758551  HIT %:   0.180448  MISS %:    99.8196   MPKI: 70.342
LLC LOAD      ACCESS:    1092737  HIT:         54  MISS:    1092683  HIT %: 0.00494172  MISS %:    99.9951   MPKI: 43.7073
LLC RFO       ACCESS:        718  HIT:          0  MISS:        718  HIT %:          0  MISS %:        100   MPKI: 0.02872
LLC PREFETCH  ACCESS:     658019  HIT:         38  MISS:     657981  HIT %: 0.00577491  MISS %:    99.9942   MPKI: 26.3192
AGUS PREFETCH L1 MISS: 0
LLC WRITEBACK ACCESS:       2767  HIT:       2761  MISS:          6  HIT %:    99.7832  MISS %:   0.216841   MPKI: 0.00024
LLC LOAD TRANSLATION ACCESS:       7485  HIT:        326  MISS:       7159  HIT %:    4.35538  MISS %:    95.6446   MPKI: 0.28636
LLC TRANSLATION FROM L1D PREFETCHER ACCESS:          4  HIT:          0  MISS:          4  HIT %:          0  MISS %:        100   MPKI: 0.00016
LLC PREFETCH  REQUESTED:          0  ISSUED:          0  USEFUL:          3  USELESS:     651171
LLC USEFUL LOAD PREFETCHES:          3 PREFETCH ISSUED TO LOWER LEVEL:     657981  ACCURACY: 0.00045594
LLC TIMELY PREFETCHES:          3 LATE PREFETCHES: 0 DROPPED PREFETCHES: 0
LLC PREFETCHES SAME FILL-ORIGIN LEVEL: 0 DIFFERENT FILL-ORIGIN LEVEL: 0
LLC AVERAGE MISS LATENCY: 76.2327 cycles
LLC RQ	ACCESS:    1100944	FORWARD:          0	MERGED:          0	TO_CACHE:    1100944
LLC WQ	ACCESS:       2767	FORWARD:          0	MERGED:          0	TO_CACHE:       2767
LLC PQ	ACCESS:     658019	FORWARD:          0	MERGED:          0	TO_CACHE:     658019

LLC Dense regions hint to LLC: 0

RAW hits: 4315
Loads Generated: 8976961
Loads sent to L1D: 8972646
Stores Generated: 370377
Stores sent to L1D: 370377
Major fault: 0 Minor fault: 48857
Allocated PAGES: 48857
CPU 0 L1D complex stride prefetcher final stats
Degree: 5

DRAM Statistics
 CHANNEL 0
 RQ ROW_BUFFER_HIT:    1657197  ROW_BUFFER_MISS:     101348
 DBUS_CONGESTED:         94
 WQ ROW_BUFFER_HIT:       1794  ROW_BUFFER_MISS:        968  FULL:          0

 AVG_CONGESTED_CYCLE: 5
 All warmup complete: 2
Channel 0 Bank busy for read cycles: 0
Channel 0 Bank busy for write cycles: 0
Channel 0
Rank 0
0banks busy for read cycles: 110079121
0banks busy for write cycles: 1596
1banks busy for read cycles: 63113625
1banks busy for write cycles: 773231
2banks busy for read cycles: 12017938
2banks busy for write cycles: 274525
3banks busy for read cycles: 2276397
3banks busy for write cycles: 98779
4banks busy for read cycles: 817135
4banks busy for write cycles: 34007
5banks busy for read cycles: 137495
5banks busy for write cycles: 13584
6banks busy for read cycles: 18986
6banks busy for write cycles: 1816
7banks busy for read cycles: 1871
7banks busy for write cycles: 219
8banks busy for read cycles: 121
8banks busy for write cycles: 0

CPU 0 Branch Prediction Accuracy: 99.1323% MPKI: 3.09396 Average ROB Occupancy at Mispredict: 121.478
Branch types
NOT_BRANCH: 16085561 64.3422%
BRANCH_DIRECT_JUMP: 85874 0.343496%
BRANCH_INDIRECT: 0 0%
BRANCH_CONDITIONAL: 8744101 34.9764%
BRANCH_DIRECT_CALL: 42053 0.168212%
BRANCH_INDIRECT_CALL: 0 0%
BRANCH_RETURN: 42053 0.168212%
BRANCH_OTHER: 0 0%

DRAM PAGES: 1048576
Allocated PAGES: 48857
