
*** ChampSim Multicore Out-of-Order Simulator ***

Warmup Instructions: 25000000
Simulation Instructions: 25000000
Number of CPUs: 1
LLC sets: 2048
LLC ways: 16
Off-chip DRAM Size: 4096 MB Channels: 1 Width: 64-bit Data Rate: 6400 MT/s
CPU 0 runs /home/yashas/CS683/pa2-lehra-do-prefetcher-wronganswersonly/traces/trace2.champsimtrace.xz
.xz
CPU 0 Bimodal branch predictor
BTB has LRU replacement policy
ITLB has LRU replacement policy
DTLB has LRU replacement policy
STLB has LRU replacement policy
L1I has LRU replacement policy
CPU 0 L1D Optimized prefetcher
L1D has LRU replacement policy
L2C has LRU replacement policy
LLC has LRU replacement policy
Heartbeat CPU 0 instructions: 10000002 cycles: 3798770 heartbeat IPC: 2.63243 cumulative IPC: 2.63243 (Simulation time: 0 hr 0 min 16 sec) 
Heartbeat CPU 0 instructions: 20000001 cycles: 7599889 heartbeat IPC: 2.6308 cumulative IPC: 2.63162 (Simulation time: 0 hr 0 min 32 sec) 

Warmup complete CPU 0 instructions: 25000001 cycles: 9499594 (Simulation time: 0 hr 0 min 40 sec) 

IP_STRIDE Accuracy is 26.7936 
Switching to CPLX L1D prefetcher
CPLX Accuracy is 83.1055 
Switching to NL L1D prefetcher
NL Accuracy is 257.617 
Prefetcher set to NL
Heartbeat CPU 0 instructions: 30000001 cycles: 25857476 heartbeat IPC: 0.547718 cumulative IPC: 0.305663 (Simulation time: 0 hr 0 min 57 sec) 
Heartbeat CPU 0 instructions: 40000002 cycles: 52915689 heartbeat IPC: 0.369574 cumulative IPC: 0.345494 (Simulation time: 0 hr 1 min 30 sec) 
Heartbeat CPU 0 instructions: 50000000 cycles: 79484235 heartbeat IPC: 0.376385 cumulative IPC: 0.357221 (Simulation time: 0 hr 2 min 3 sec) 
Finished CPU 0 instructions: 25000000 cycles: 69984663 cumulative IPC: 0.357221 (Simulation time: 0 hr 2 min 3 sec) 

ChampSim completed all CPUs

Region of Interest Statistics

CPU 0 cumulative IPC: 0.357221 instructions: 25000000 cycles: 69984663
ITLB TOTAL     ACCESS:    4574995  HIT:    4574995  MISS:          0  HIT %:        100  MISS %:          0   MPKI: 0
ITLB LOAD TRANSLATION ACCESS:    4574995  HIT:    4574995  MISS:          0  HIT %:        100  MISS %:          0   MPKI: 0
ITLB PREFETCH  REQUESTED:          0  ISSUED:          0  USEFUL:          0  USELESS:          0
ITLB USEFUL LOAD PREFETCHES:          0 PREFETCH ISSUED TO LOWER LEVEL:          0  ACCURACY: -nan
ITLB TIMELY PREFETCHES:          0 LATE PREFETCHES: 0 DROPPED PREFETCHES: 0
ITLB PREFETCHES SAME FILL-ORIGIN LEVEL: 0 DIFFERENT FILL-ORIGIN LEVEL: 0
ITLB AVERAGE MISS LATENCY: -nan cycles
ITLB RQ	ACCESS:    4660408	FORWARD:          0	MERGED:      85413	TO_CACHE:    4574995

DTLB TOTAL     ACCESS:    3869368  HIT:    3835354  MISS:      34014  HIT %:    99.1209  MISS %:   0.879058   MPKI: 1.36056
DTLB LOAD TRANSLATION ACCESS:    3869368  HIT:    3835354  MISS:      34014  HIT %:    99.1209  MISS %:   0.879058   MPKI: 1.36056
DTLB PREFETCH  REQUESTED:          0  ISSUED:          0  USEFUL:          0  USELESS:          0
DTLB USEFUL LOAD PREFETCHES:          0 PREFETCH ISSUED TO LOWER LEVEL:          0  ACCURACY: -nan
DTLB TIMELY PREFETCHES:          0 LATE PREFETCHES: 0 DROPPED PREFETCHES: 0
DTLB PREFETCHES SAME FILL-ORIGIN LEVEL: 0 DIFFERENT FILL-ORIGIN LEVEL: 0
DTLB AVERAGE MISS LATENCY: 107.715 cycles
DTLB RQ	ACCESS:    4554048	FORWARD:          0	MERGED:     684550	TO_CACHE:    3869498

STLB TOTAL     ACCESS:    3009367  HIT:    2976706  MISS:      32661  HIT %:    98.9147  MISS %:    1.08531   MPKI: 1.30644
STLB LOAD TRANSLATION ACCESS:      34014  HIT:       1361  MISS:      32653  HIT %:    4.00129  MISS %:    95.9987   MPKI: 1.30612
STLB TRANSLATION FROM L1D PREFETCHER ACCESS:    2975353  HIT:    2975345  MISS:          8  HIT %:    99.9997  MISS %: 0.000268876   MPKI: 0.00032
STLB PREFETCH  REQUESTED:          0  ISSUED:          0  USEFUL:          8  USELESS:          0
STLB USEFUL LOAD PREFETCHES:          8 PREFETCH ISSUED TO LOWER LEVEL:          0  ACCURACY: inf
STLB TIMELY PREFETCHES:          8 LATE PREFETCHES: 0 DROPPED PREFETCHES: 0
STLB PREFETCHES SAME FILL-ORIGIN LEVEL: 0 DIFFERENT FILL-ORIGIN LEVEL: 0
STLB AVERAGE MISS LATENCY: 102.917 cycles
STLB RQ	ACCESS:   14372667	FORWARD:          0	MERGED:   11363300	TO_CACHE:    3009367

STLB Hit, L1D data hit: 0
STLB Hit, L2C data hit: 0
STLB Hit, LLC data hit: 0
STLB Hit, LLC data miss: 0
STLB STLB hints to L2: 0
L1D TOTAL     ACCESS:   11195460  HIT:    9364458  MISS:    1831002  HIT %:    83.6451  MISS %:    16.3549   MPKI: 73.2401
L1D LOAD      ACCESS:    4197860  HIT:    3898102  MISS:     299758  HIT %:    92.8593  MISS %:    7.14073   MPKI: 11.9903
L1D RFO       ACCESS:     333322  HIT:     333294  MISS:         28  HIT %:    99.9916  MISS %: 0.00840029   MPKI: 0.00112
L1D PREFETCH  ACCESS:    6664278  HIT:    5133062  MISS:    1531216  HIT %:    77.0235  MISS %:    22.9765   MPKI: 61.2486
AGUS PREFETCH L1 MISS: 0
L1D PREFETCH  REQUESTED:   34206608  ISSUED:   34177789  USEFUL:    1454912  USELESS:      76212
L1D USEFUL LOAD PREFETCHES:    1454912 PREFETCH ISSUED TO LOWER LEVEL:    1763916  ACCURACY: 82.4819
L1D TIMELY PREFETCHES:    1454912 LATE PREFETCHES: 232700 DROPPED PREFETCHES: 0
L1D PREFETCHES SAME FILL-ORIGIN LEVEL: 1763916 DIFFERENT FILL-ORIGIN LEVEL: 0
L1D AVERAGE MISS LATENCY: 120.513 cycles
L1D RQ	ACCESS:    8972962	FORWARD:          0	MERGED:    4750683	TO_CACHE:    4220722
L1D WQ	ACCESS:     370377	FORWARD:       1557	MERGED:      37051	TO_CACHE:     333326
L1D PQ	ACCESS:   19839136	FORWARD:          0	MERGED:    5500483	TO_CACHE:   14338653

L1D UNIQUE REGIONS ACCESSED: 0
L1D REGIONS CONFLICTS: 0
L1D Cross Page Prefetch Requests: 0
L1D Same Page Prefetch Requests: 19839136
L1D ROI Sum of L1D PQ occupancy: 201391206
L1D PREFETCHES PUSHED FROM L2C: 0
L1I TOTAL     ACCESS:    4660407  HIT:    4660407  MISS:          0  HIT %:        100  MISS %:          0   MPKI: 0
L1I LOAD      ACCESS:    4660407  HIT:    4660407  MISS:          0  HIT %:        100  MISS %:          0   MPKI: 0
L1I PREFETCH  REQUESTED:          0  ISSUED:          0  USEFUL:          0  USELESS:          0
L1I USEFUL LOAD PREFETCHES:          0 PREFETCH ISSUED TO LOWER LEVEL:          0  ACCURACY: -nan
L1I TIMELY PREFETCHES:          0 LATE PREFETCHES: 0 DROPPED PREFETCHES: 0
L1I PREFETCHES SAME FILL-ORIGIN LEVEL: 0 DIFFERENT FILL-ORIGIN LEVEL: 0
L1I AVERAGE MISS LATENCY: -nan cycles
L1I RQ	ACCESS:    6990476	FORWARD:          0	MERGED:    2330068	TO_CACHE:    4660408

BTB TOTAL     ACCESS:    5953193  HIT:    5953095  MISS:         98  HIT %:    99.9984  MISS %: 0.00164618   MPKI: 0.00392
BTB BRANCH_DIRECT_JUMP	ACCESS:      85874  HIT:      85848  MISS:         26
BTB BRANCH_INDIRECT	ACCESS:          0  HIT:          0  MISS:          0
BTB BRANCH_CONDITIONAL	ACCESS:    5783213  HIT:    5783164  MISS:         49
BTB BRANCH_DIRECT_CALL	ACCESS:      42053  HIT:      42043  MISS:         10
BTB BRANCH_INDIRECT_CALL	ACCESS:          0  HIT:          0  MISS:          0
BTB BRANCH_RETURN	ACCESS:      42053  HIT:      42040  MISS:         13
BTB BRANCH_OTHER ACCESS:          0  HIT:          0  MISS:          0

L2C TOTAL     ACCESS:    1867104  HIT:      66491  MISS:    1800613  HIT %:    3.56118  MISS %:    96.4388   MPKI: 72.0245
L2C LOAD      ACCESS:      67058  HIT:       5716  MISS:      61342  HIT %:    8.52396  MISS %:     91.476   MPKI: 2.45368
L2C DATA LOAD MPKI: 2.45368
L2C INSTRUCTION LOAD MPKI: 0
L2C RFO       ACCESS:         28  HIT:          3  MISS:         25  HIT %:    10.7143  MISS %:    89.2857   MPKI: 0.001
L2C PREFETCH  ACCESS:    1763916  HIT:      32142  MISS:    1731774  HIT %:     1.8222  MISS %:    98.1778   MPKI: 69.271
AGUS PREFETCH L1 MISS: 0
L2C DATA PREFETCH MPKI: 69.271
L2C INSTRUCTION PREFETCH MPKI: 0
L2C WRITEBACK ACCESS:       2818  HIT:       2796  MISS:         22  HIT %:    99.2193  MISS %:   0.780696   MPKI: 0.00088
L2C LOAD TRANSLATION ACCESS:      33270  HIT:      25833  MISS:       7437  HIT %:    77.6465  MISS %:    22.3535   MPKI: 0.29748
L2C TRANSLATION FROM L1D PREFETCHER ACCESS:         14  HIT:          1  MISS:         13  HIT %:    7.14286  MISS %:    92.8571   MPKI: 0.00052
L2C PREFETCH  REQUESTED:          0  ISSUED:          0  USEFUL:       1693  USELESS:    1722130
L2C USEFUL LOAD PREFETCHES:       1693 PREFETCH ISSUED TO LOWER LEVEL:    1731774  ACCURACY: 0.097761
L2C TIMELY PREFETCHES:       1693 LATE PREFETCHES: 0 DROPPED PREFETCHES: 0
L2C PREFETCHES SAME FILL-ORIGIN LEVEL: 0 DIFFERENT FILL-ORIGIN LEVEL: 0
L2C AVERAGE MISS LATENCY: 107.898 cycles
L2C RQ	ACCESS:     100369	FORWARD:          0	MERGED:          0	TO_CACHE:     100369
L2C WQ	ACCESS:       2818	FORWARD:          0	MERGED:          0	TO_CACHE:       2818
L2C PQ	ACCESS:    1763916	FORWARD:          0	MERGED:          0	TO_CACHE:    1763916

L2C Instructions Evicting Data 0
L2C Translations Evicting Data 7421
L2C Data Evicting Data 1785733
L2C Instructions Evicting Instructions 0
L2C Translations Evicting Instructions 0
L2C Data Evicting Instructions 0
L2C Instructions Evicting Translations 0
L2C Translations Evicting Translations 29
L2C Data Evicting Translations 7408
L2C Dense regions hint from L2: 0
PSCL5 TOTAL     ACCESS:      32661  HIT:      32661  MISS:          0  HIT %:        100  MISS %:          0   MPKI: 0
PSCL5 LOAD TRANSLATION ACCESS:      32653  HIT:      32653  MISS:          0  HIT %:        100  MISS %:          0   MPKI: 0
PSCL5 TRANSLATION FROM L1D PREFETCHER ACCESS:          8  HIT:          8  MISS:          0  HIT %:        100  MISS %:          0   MPKI: 0
PSCL5 PREFETCH  REQUESTED:          0  ISSUED:          0  USEFUL:          0  USELESS:          0
PSCL5 USEFUL LOAD PREFETCHES:          0 PREFETCH ISSUED TO LOWER LEVEL:          0  ACCURACY: -nan
PSCL5 TIMELY PREFETCHES:          0 LATE PREFETCHES: 0 DROPPED PREFETCHES: 0
PSCL5 PREFETCHES SAME FILL-ORIGIN LEVEL: 0 DIFFERENT FILL-ORIGIN LEVEL: 0

PSCL4 TOTAL     ACCESS:      32661  HIT:      32661  MISS:          0  HIT %:        100  MISS %:          0   MPKI: 0
PSCL4 LOAD TRANSLATION ACCESS:      32653  HIT:      32653  MISS:          0  HIT %:        100  MISS %:          0   MPKI: 0
PSCL4 TRANSLATION FROM L1D PREFETCHER ACCESS:          8  HIT:          8  MISS:          0  HIT %:        100  MISS %:          0   MPKI: 0
PSCL4 PREFETCH  REQUESTED:          0  ISSUED:          0  USEFUL:          0  USELESS:          0
PSCL4 USEFUL LOAD PREFETCHES:          0 PREFETCH ISSUED TO LOWER LEVEL:          0  ACCURACY: -nan
PSCL4 TIMELY PREFETCHES:          0 LATE PREFETCHES: 0 DROPPED PREFETCHES: 0
PSCL4 PREFETCHES SAME FILL-ORIGIN LEVEL: 0 DIFFERENT FILL-ORIGIN LEVEL: 0

PSCL3 TOTAL     ACCESS:      32499  HIT:      32496  MISS:          3  HIT %:    99.9908  MISS %: 0.00923105   MPKI: 0.00012
PSCL3 LOAD TRANSLATION ACCESS:      32492  HIT:      32489  MISS:          3  HIT %:    99.9908  MISS %: 0.00923304   MPKI: 0.00012
PSCL3 TRANSLATION FROM L1D PREFETCHER ACCESS:          7  HIT:          7  MISS:          0  HIT %:        100  MISS %:          0   MPKI: 0
PSCL3 PREFETCH  REQUESTED:          0  ISSUED:          0  USEFUL:          0  USELESS:          0
PSCL3 USEFUL LOAD PREFETCHES:          0 PREFETCH ISSUED TO LOWER LEVEL:          0  ACCURACY: -nan
PSCL3 TIMELY PREFETCHES:          0 LATE PREFETCHES: 0 DROPPED PREFETCHES: 0
PSCL3 PREFETCHES SAME FILL-ORIGIN LEVEL: 0 DIFFERENT FILL-ORIGIN LEVEL: 0

PSCL2 TOTAL     ACCESS:      32661  HIT:      31943  MISS:        718  HIT %:    97.8017  MISS %:    2.19834   MPKI: 0.02872
PSCL2 LOAD TRANSLATION ACCESS:      32658  HIT:      31940  MISS:        718  HIT %:    97.8015  MISS %:    2.19854   MPKI: 0.02872
PSCL2 TRANSLATION FROM L1D PREFETCHER ACCESS:          3  HIT:          3  MISS:          0  HIT %:        100  MISS %:          0   MPKI: 0
PSCL2 PREFETCH  REQUESTED:          0  ISSUED:          0  USEFUL:          0  USELESS:          0
PSCL2 USEFUL LOAD PREFETCHES:          0 PREFETCH ISSUED TO LOWER LEVEL:          0  ACCURACY: -nan
PSCL2 TIMELY PREFETCHES:          0 LATE PREFETCHES: 0 DROPPED PREFETCHES: 0
PSCL2 PREFETCHES SAME FILL-ORIGIN LEVEL: 0 DIFFERENT FILL-ORIGIN LEVEL: 0

LLC TOTAL     ACCESS:    1803366  HIT:       5543  MISS:    1797823  HIT %:    0.30737  MISS %:    99.6926   MPKI: 71.9129
LLC LOAD      ACCESS:      61342  HIT:        531  MISS:      60811  HIT %:   0.865639  MISS %:    99.1344   MPKI: 2.43244
LLC RFO       ACCESS:         25  HIT:          0  MISS:         25  HIT %:          0  MISS %:        100   MPKI: 0.001
LLC PREFETCH  ACCESS:    1731774  HIT:       1923  MISS:    1729851  HIT %:   0.111042  MISS %:     99.889   MPKI: 69.194
AGUS PREFETCH L1 MISS: 0
LLC WRITEBACK ACCESS:       2775  HIT:       2765  MISS:         10  HIT %:    99.6396  MISS %:    0.36036   MPKI: 0.0004
LLC LOAD TRANSLATION ACCESS:       7437  HIT:        324  MISS:       7113  HIT %:     4.3566  MISS %:    95.6434   MPKI: 0.28452
LLC TRANSLATION FROM L1D PREFETCHER ACCESS:         13  HIT:          0  MISS:         13  HIT %:          0  MISS %:        100   MPKI: 0.00052
LLC PREFETCH  REQUESTED:          0  ISSUED:          0  USEFUL:         37  USELESS:    1697991
LLC USEFUL LOAD PREFETCHES:         37 PREFETCH ISSUED TO LOWER LEVEL:    1729851  ACCURACY: 0.00213891
LLC TIMELY PREFETCHES:         37 LATE PREFETCHES: 0 DROPPED PREFETCHES: 0
LLC PREFETCHES SAME FILL-ORIGIN LEVEL: 0 DIFFERENT FILL-ORIGIN LEVEL: 0
LLC AVERAGE MISS LATENCY: 77.9225 cycles
LLC RQ	ACCESS:      68816	FORWARD:          0	MERGED:          0	TO_CACHE:      68816
LLC WQ	ACCESS:       2775	FORWARD:          0	MERGED:          0	TO_CACHE:       2775
LLC PQ	ACCESS:    1731774	FORWARD:          0	MERGED:          0	TO_CACHE:    1731774

LLC Dense regions hint to LLC: 0

RAW hits: 3999
Loads Generated: 8976961
Loads sent to L1D: 8972962
Stores Generated: 370377
Stores sent to L1D: 370377
Major fault: 0 Minor fault: 48857
Allocated PAGES: 48857
CPU 0 L1D optimized prefetcher final stats
Degree: 5

DRAM Statistics
 CHANNEL 0
 RQ ROW_BUFFER_HIT:    1672018  ROW_BUFFER_MISS:     125794
 DBUS_CONGESTED:        352
 WQ ROW_BUFFER_HIT:        429  ROW_BUFFER_MISS:       2343  FULL:          0

 AVG_CONGESTED_CYCLE: 4
 All warmup complete: 2
Channel 0 Bank busy for read cycles: 0
Channel 0 Bank busy for write cycles: 0
Channel 0
Rank 0
0banks busy for read cycles: 18476342
0banks busy for write cycles: 1279
1banks busy for read cycles: 15134044
1banks busy for write cycles: 319751
2banks busy for read cycles: 27562179
2banks busy for write cycles: 151070
3banks busy for read cycles: 4927263
3banks busy for write cycles: 56705
4banks busy for read cycles: 909557
4banks busy for write cycles: 30709
5banks busy for read cycles: 692370
5banks busy for write cycles: 15358
6banks busy for read cycles: 1554697
6banks busy for write cycles: 8852
7banks busy for read cycles: 121024
7banks busy for write cycles: 2546
8banks busy for read cycles: 19699
8banks busy for write cycles: 1219

CPU 0 Branch Prediction Accuracy: 99.1323% MPKI: 3.09396 Average ROB Occupancy at Mispredict: 107.965
Branch types
NOT_BRANCH: 16085561 64.3422%
BRANCH_DIRECT_JUMP: 85874 0.343496%
BRANCH_INDIRECT: 0 0%
BRANCH_CONDITIONAL: 8744101 34.9764%
BRANCH_DIRECT_CALL: 42053 0.168212%
BRANCH_INDIRECT_CALL: 0 0%
BRANCH_RETURN: 42053 0.168212%
BRANCH_OTHER: 0 0%

DRAM PAGES: 1048576
Allocated PAGES: 48857
