
*** ChampSim Multicore Out-of-Order Simulator ***

Warmup Instructions: 25000000
Simulation Instructions: 25000000
Number of CPUs: 1
LLC sets: 2048
LLC ways: 16
Off-chip DRAM Size: 4096 MB Channels: 1 Width: 64-bit Data Rate: 6400 MT/s
CPU 0 runs /home/yashas/CS683/pa2-lehra-do-prefetcher-wronganswersonly/traces/trace1.champsimtrace.xz
.xz
CPU 0 Bimodal branch predictor
BTB has LRU replacement policy
ITLB has LRU replacement policy
DTLB has LRU replacement policy
CPU 0 STLB arbitrary stride prefetcher
STLB has LRU replacement policy
L1I has LRU replacement policy
L1D has LRU replacement policy
L2C has LRU replacement policy
LLC has LRU replacement policy
Heartbeat CPU 0 instructions: 10000003 cycles: 2826731 heartbeat IPC: 3.53766 cumulative IPC: 3.53766 (Simulation time: 0 hr 0 min 16 sec) 
Heartbeat CPU 0 instructions: 20000000 cycles: 5641419 heartbeat IPC: 3.55279 cumulative IPC: 3.54521 (Simulation time: 0 hr 0 min 31 sec) 

Warmup complete CPU 0 instructions: 25000004 cycles: 7053523 (Simulation time: 0 hr 0 min 39 sec) 

Heartbeat CPU 0 instructions: 30000002 cycles: 23849727 heartbeat IPC: 0.5492 cumulative IPC: 0.297686 (Simulation time: 0 hr 1 min 0 sec) 
Heartbeat CPU 0 instructions: 40000001 cycles: 59770830 heartbeat IPC: 0.278388 cumulative IPC: 0.284536 (Simulation time: 0 hr 1 min 43 sec) 
Heartbeat CPU 0 instructions: 50000003 cycles: 94529657 heartbeat IPC: 0.287697 cumulative IPC: 0.285792 (Simulation time: 0 hr 2 min 25 sec) 
Finished CPU 0 instructions: 25000003 cycles: 87476135 cumulative IPC: 0.285792 (Simulation time: 0 hr 2 min 25 sec) 

ChampSim completed all CPUs

Region of Interest Statistics

CPU 0 cumulative IPC: 0.285792 instructions: 25000003 cycles: 87476135
ITLB TOTAL     ACCESS:    4431136  HIT:    4431136  MISS:          0  HIT %:        100  MISS %:          0   MPKI: 0
ITLB LOAD TRANSLATION ACCESS:    4431136  HIT:    4431136  MISS:          0  HIT %:        100  MISS %:          0   MPKI: 0
ITLB PREFETCH  REQUESTED:          0  ISSUED:          0  USEFUL:          0  USELESS:          0
ITLB USEFUL LOAD PREFETCHES:          0 PREFETCH ISSUED TO LOWER LEVEL:          0  ACCURACY: -nan
ITLB TIMELY PREFETCHES:          0 LATE PREFETCHES: 0 DROPPED PREFETCHES: 0
ITLB PREFETCHES SAME FILL-ORIGIN LEVEL: 0 DIFFERENT FILL-ORIGIN LEVEL: 0
ITLB AVERAGE MISS LATENCY: -nan cycles
ITLB RQ	ACCESS:    4786628	FORWARD:          0	MERGED:     355492	TO_CACHE:    4431136

DTLB TOTAL     ACCESS:    3712692  HIT:    3049761  MISS:     662931  HIT %:    82.1442  MISS %:    17.8558   MPKI: 26.5172
DTLB LOAD TRANSLATION ACCESS:    3712692  HIT:    3049761  MISS:     662931  HIT %:    82.1442  MISS %:    17.8558   MPKI: 26.5172
DTLB PREFETCH  REQUESTED:          0  ISSUED:          0  USEFUL:          0  USELESS:          0
DTLB USEFUL LOAD PREFETCHES:          0 PREFETCH ISSUED TO LOWER LEVEL:          0  ACCURACY: -nan
DTLB TIMELY PREFETCHES:          0 LATE PREFETCHES: 0 DROPPED PREFETCHES: 0
DTLB PREFETCHES SAME FILL-ORIGIN LEVEL: 0 DIFFERENT FILL-ORIGIN LEVEL: 0
DTLB AVERAGE MISS LATENCY: 52.5008 cycles
DTLB RQ	ACCESS:    4311901	FORWARD:          0	MERGED:     590341	TO_CACHE:    3721560

STLB TOTAL     ACCESS:    1210668  HIT:     453678  MISS:     756990  HIT %:    37.4734  MISS %:    62.5266   MPKI: 30.2796
STLB LOAD TRANSLATION ACCESS:     662931  HIT:     103014  MISS:     559917  HIT %:    15.5392  MISS %:    84.4608   MPKI: 22.3967
STLB PREFETCH TRANSLATION ACCESS:     547737  HIT:     350664  MISS:     197073  HIT %:    64.0205  MISS %:    35.9795   MPKI: 7.88292
STLB PREFETCH  REQUESTED:     584808  ISSUED:     583662  USEFUL:       3130  USELESS:     194291
STLB USEFUL LOAD PREFETCHES:       3130 PREFETCH ISSUED TO LOWER LEVEL:     230253  ACCURACY: 1.35937
STLB TIMELY PREFETCHES:       3130 LATE PREFETCHES: 6 DROPPED PREFETCHES: 33174
STLB PREFETCHES SAME FILL-ORIGIN LEVEL: 230253 DIFFERENT FILL-ORIGIN LEVEL: 0
STLB AVERAGE MISS LATENCY: 88.7356 cycles
STLB RQ	ACCESS:     662934	FORWARD:          0	MERGED:          0	TO_CACHE:     662934
STLB PQ	ACCESS:     583662	FORWARD:          0	MERGED:       1408	TO_CACHE:     582254

STLB Hit, L1D data hit: 0
STLB Hit, L2C data hit: 0
STLB Hit, LLC data hit: 0
STLB Hit, LLC data miss: 0
STLB STLB hints to L2: 0
L1D TOTAL     ACCESS:    4293639  HIT:    3088362  MISS:    1205277  HIT %:    71.9288  MISS %:    28.0712   MPKI: 48.2111
L1D LOAD      ACCESS:    3184976  HIT:    2049063  MISS:    1135913  HIT %:    64.3353  MISS %:    35.6647   MPKI: 45.4365
L1D RFO       ACCESS:    1108663  HIT:    1039299  MISS:      69364  HIT %:    93.7435  MISS %:    6.25655   MPKI: 2.77456
L1D PREFETCH  REQUESTED:          0  ISSUED:          0  USEFUL:          0  USELESS:          0
L1D USEFUL LOAD PREFETCHES:          0 PREFETCH ISSUED TO LOWER LEVEL:          0  ACCURACY: -nan
L1D TIMELY PREFETCHES:          0 LATE PREFETCHES: 0 DROPPED PREFETCHES: 0
L1D PREFETCHES SAME FILL-ORIGIN LEVEL: 0 DIFFERENT FILL-ORIGIN LEVEL: 0
L1D AVERAGE MISS LATENCY: 124.847 cycles
L1D RQ	ACCESS:    6164303	FORWARD:          0	MERGED:    2893775	TO_CACHE:    3203236
L1D WQ	ACCESS:    1108674	FORWARD:      67292	MERGED:          9	TO_CACHE:    1108665

L1D UNIQUE REGIONS ACCESSED: 0
L1D REGIONS CONFLICTS: 0
L1D Cross Page Prefetch Requests: 0
L1D Same Page Prefetch Requests: 0
L1D ROI Sum of L1D PQ occupancy: 0
L1D PREFETCHES PUSHED FROM L2C: 0
L1I TOTAL     ACCESS:    4786628  HIT:    4786628  MISS:          0  HIT %:        100  MISS %:          0   MPKI: 0
L1I LOAD      ACCESS:    4786628  HIT:    4786628  MISS:          0  HIT %:        100  MISS %:          0   MPKI: 0
L1I PREFETCH  REQUESTED:          0  ISSUED:          0  USEFUL:          0  USELESS:          0
L1I USEFUL LOAD PREFETCHES:          0 PREFETCH ISSUED TO LOWER LEVEL:          0  ACCURACY: -nan
L1I TIMELY PREFETCHES:          0 LATE PREFETCHES: 0 DROPPED PREFETCHES: 0
L1I PREFETCHES SAME FILL-ORIGIN LEVEL: 0 DIFFERENT FILL-ORIGIN LEVEL: 0
L1I AVERAGE MISS LATENCY: -nan cycles
L1I RQ	ACCESS:    7082328	FORWARD:          0	MERGED:    2295700	TO_CACHE:    4786628

BTB TOTAL     ACCESS:    3283963  HIT:    3283955  MISS:          8  HIT %:    99.9998  MISS %: 0.000243608   MPKI: 0.00032
BTB BRANCH_DIRECT_JUMP	ACCESS:     568310  HIT:     568308  MISS:          2
BTB BRANCH_INDIRECT	ACCESS:          0  HIT:          0  MISS:          0
BTB BRANCH_CONDITIONAL	ACCESS:    1606985  HIT:    1606981  MISS:          4
BTB BRANCH_DIRECT_CALL	ACCESS:     554334  HIT:     554333  MISS:          1
BTB BRANCH_INDIRECT_CALL	ACCESS:          0  HIT:          0  MISS:          0
BTB BRANCH_RETURN	ACCESS:     554334  HIT:     554333  MISS:          1
BTB BRANCH_OTHER ACCESS:          0  HIT:          0  MISS:          0

L2C TOTAL     ACCESS:    2650780  HIT:    1603498  MISS:    1047282  HIT %:    60.4916  MISS %:    39.5084   MPKI: 41.8913
L2C LOAD      ACCESS:    1135912  HIT:     411406  MISS:     724506  HIT %:    36.2181  MISS %:    63.7819   MPKI: 28.9802
L2C DATA LOAD MPKI: 28.9802
L2C INSTRUCTION LOAD MPKI: 0
L2C RFO       ACCESS:      69364  HIT:      39496  MISS:      29868  HIT %:    56.9402  MISS %:    43.0598   MPKI: 1.19472
L2C WRITEBACK ACCESS:     554350  HIT:     554350  MISS:          0  HIT %:        100  MISS %:          0   MPKI: 0
L2C LOAD TRANSLATION ACCESS:     613136  HIT:     407169  MISS:     205967  HIT %:    66.4076  MISS %:    33.5924   MPKI: 8.23868
L2C PREFETCH TRANSLATION ACCESS:     278018  HIT:     191077  MISS:      86941  HIT %:    68.7283  MISS %:    31.2717   MPKI: 3.47764
L2C PREFETCH  REQUESTED:          0  ISSUED:          0  USEFUL:      60740  USELESS:      26291
L2C USEFUL LOAD PREFETCHES:      60740 PREFETCH ISSUED TO LOWER LEVEL:          0  ACCURACY: inf
L2C TIMELY PREFETCHES:      60740 LATE PREFETCHES: 0 DROPPED PREFETCHES: 0
L2C PREFETCHES SAME FILL-ORIGIN LEVEL: 0 DIFFERENT FILL-ORIGIN LEVEL: 0
L2C AVERAGE MISS LATENCY: 136.906 cycles
L2C RQ	ACCESS:    2096431	FORWARD:          0	MERGED:          0	TO_CACHE:    2096431
L2C WQ	ACCESS:     554350	FORWARD:          0	MERGED:          0	TO_CACHE:     554350

L2C Instructions Evicting Data 0
L2C Translations Evicting Data 176306
L2C Data Evicting Data 577761
L2C Instructions Evicting Instructions 0
L2C Translations Evicting Instructions 0
L2C Data Evicting Instructions 0
L2C Instructions Evicting Translations 0
L2C Translations Evicting Translations 116602
L2C Data Evicting Translations 176613
L2C Dense regions hint from L2: 0
PSCL5 TOTAL     ACCESS:     790165  HIT:     790165  MISS:          0  HIT %:        100  MISS %:          0   MPKI: 0
PSCL5 LOAD TRANSLATION ACCESS:     559912  HIT:     559912  MISS:          0  HIT %:        100  MISS %:          0   MPKI: 0
PSCL5 PREFETCH TRANSLATION ACCESS:     230253  HIT:     230253  MISS:          0  HIT %:        100  MISS %:          0   MPKI: 0
PSCL5 PREFETCH  REQUESTED:          0  ISSUED:          0  USEFUL:          0  USELESS:          0
PSCL5 USEFUL LOAD PREFETCHES:          0 PREFETCH ISSUED TO LOWER LEVEL:          0  ACCURACY: -nan
PSCL5 TIMELY PREFETCHES:          0 LATE PREFETCHES: 0 DROPPED PREFETCHES: 0
PSCL5 PREFETCHES SAME FILL-ORIGIN LEVEL: 0 DIFFERENT FILL-ORIGIN LEVEL: 0

PSCL4 TOTAL     ACCESS:     790165  HIT:     790165  MISS:          0  HIT %:        100  MISS %:          0   MPKI: 0
PSCL4 LOAD TRANSLATION ACCESS:     559912  HIT:     559912  MISS:          0  HIT %:        100  MISS %:          0   MPKI: 0
PSCL4 PREFETCH TRANSLATION ACCESS:     230253  HIT:     230253  MISS:          0  HIT %:        100  MISS %:          0   MPKI: 0
PSCL4 PREFETCH  REQUESTED:          0  ISSUED:          0  USEFUL:          0  USELESS:          0
PSCL4 USEFUL LOAD PREFETCHES:          0 PREFETCH ISSUED TO LOWER LEVEL:          0  ACCURACY: -nan
PSCL4 TIMELY PREFETCHES:          0 LATE PREFETCHES: 0 DROPPED PREFETCHES: 0
PSCL4 PREFETCHES SAME FILL-ORIGIN LEVEL: 0 DIFFERENT FILL-ORIGIN LEVEL: 0

PSCL3 TOTAL     ACCESS:     788542  HIT:     788542  MISS:          0  HIT %:        100  MISS %:          0   MPKI: 0
PSCL3 LOAD TRANSLATION ACCESS:     559912  HIT:     559912  MISS:          0  HIT %:        100  MISS %:          0   MPKI: 0
PSCL3 PREFETCH TRANSLATION ACCESS:     228630  HIT:     228630  MISS:          0  HIT %:        100  MISS %:          0   MPKI: 0
PSCL3 PREFETCH  REQUESTED:          0  ISSUED:          0  USEFUL:          0  USELESS:          0
PSCL3 USEFUL LOAD PREFETCHES:          0 PREFETCH ISSUED TO LOWER LEVEL:          0  ACCURACY: -nan
PSCL3 TIMELY PREFETCHES:          0 LATE PREFETCHES: 0 DROPPED PREFETCHES: 0
PSCL3 PREFETCHES SAME FILL-ORIGIN LEVEL: 0 DIFFERENT FILL-ORIGIN LEVEL: 0

PSCL2 TOTAL     ACCESS:     762652  HIT:     685364  MISS:      77288  HIT %:    89.8659  MISS %:    10.1341   MPKI: 3.09152
PSCL2 LOAD TRANSLATION ACCESS:     583975  HIT:     506687  MISS:      77288  HIT %:    86.7652  MISS %:    13.2348   MPKI: 3.09152
PSCL2 PREFETCH TRANSLATION ACCESS:     178677  HIT:     178677  MISS:          0  HIT %:        100  MISS %:          0   MPKI: 0
PSCL2 PREFETCH  REQUESTED:          0  ISSUED:          0  USEFUL:          0  USELESS:          0
PSCL2 USEFUL LOAD PREFETCHES:          0 PREFETCH ISSUED TO LOWER LEVEL:          0  ACCURACY: -nan
PSCL2 TIMELY PREFETCHES:          0 LATE PREFETCHES: 0 DROPPED PREFETCHES: 0
PSCL2 PREFETCHES SAME FILL-ORIGIN LEVEL: 0 DIFFERENT FILL-ORIGIN LEVEL: 0

LLC TOTAL     ACCESS:    1601871  HIT:     946165  MISS:     655706  HIT %:    59.0662  MISS %:    40.9338   MPKI: 26.2282
LLC LOAD      ACCESS:     724506  HIT:      83001  MISS:     641505  HIT %:    11.4562  MISS %:    88.5438   MPKI: 25.6602
LLC RFO       ACCESS:      29868  HIT:      29864  MISS:          4  HIT %:    99.9866  MISS %:  0.0133923   MPKI: 0.00016
LLC WRITEBACK ACCESS:     554589  HIT:     554589  MISS:          0  HIT %:        100  MISS %:          0   MPKI: 0
LLC LOAD TRANSLATION ACCESS:     205967  HIT:     199733  MISS:       6234  HIT %:    96.9733  MISS %:     3.0267   MPKI: 0.24936
LLC PREFETCH TRANSLATION ACCESS:      86941  HIT:      78978  MISS:       7963  HIT %:    90.8409  MISS %:    9.15908   MPKI: 0.31852
LLC PREFETCH  REQUESTED:          0  ISSUED:          0  USEFUL:       5794  USELESS:       2206
LLC USEFUL LOAD PREFETCHES:       5794 PREFETCH ISSUED TO LOWER LEVEL:          0  ACCURACY: inf
LLC TIMELY PREFETCHES:       5794 LATE PREFETCHES: 0 DROPPED PREFETCHES: 0
LLC PREFETCHES SAME FILL-ORIGIN LEVEL: 0 DIFFERENT FILL-ORIGIN LEVEL: 0
LLC AVERAGE MISS LATENCY: 170.554 cycles
LLC RQ	ACCESS:    1047283	FORWARD:          0	MERGED:          0	TO_CACHE:    1047283
LLC WQ	ACCESS:     554588	FORWARD:          0	MERGED:          0	TO_CACHE:     554588

LLC Dense regions hint to LLC: 0

RAW hits: 486230
Loads Generated: 6650538
Loads sent to L1D: 6164303
Stores Generated: 1108672
Stores sent to L1D: 1108674
Major fault: 0 Minor fault: 23115
Allocated PAGES: 23115
CPU 0 STLB arbitrary stride prefetcher final stats
Degree: 8

DRAM Statistics
 CHANNEL 0
 RQ ROW_BUFFER_HIT:        892  ROW_BUFFER_MISS:     654814
 DBUS_CONGESTED:          7
 WQ ROW_BUFFER_HIT:     204610  ROW_BUFFER_MISS:     349569  FULL:          0

 AVG_CONGESTED_CYCLE: 4
 All warmup complete: 2
Channel 0 Bank busy for read cycles: 0
Channel 0 Bank busy for write cycles: 0
Channel 0
Rank 0
0banks busy for read cycles: 2592638
0banks busy for write cycles: 60089
1banks busy for read cycles: 20167686
1banks busy for write cycles: 4593311
2banks busy for read cycles: 14023586
2banks busy for write cycles: 6838610
3banks busy for read cycles: 11583810
3banks busy for write cycles: 9804438
4banks busy for read cycles: 3769442
4banks busy for write cycles: 8116184
5banks busy for read cycles: 44222
5banks busy for write cycles: 3327212
6banks busy for read cycles: 340
6banks busy for write cycles: 1352744
7banks busy for read cycles: 0
7banks busy for write cycles: 661922
8banks busy for read cycles: 0
8banks busy for write cycles: 539902

CPU 0 Branch Prediction Accuracy: 99.9685% MPKI: 0.04912 Average ROB Occupancy at Mispredict: 155.764
Branch types
NOT_BRANCH: 21105636 84.4225%
BRANCH_DIRECT_JUMP: 568310 2.27324%
BRANCH_INDIRECT: 0 0%
BRANCH_CONDITIONAL: 2217336 8.86934%
BRANCH_DIRECT_CALL: 554334 2.21734%
BRANCH_INDIRECT_CALL: 0 0%
BRANCH_RETURN: 554334 2.21734%
BRANCH_OTHER: 0 0%

DRAM PAGES: 1048576
Allocated PAGES: 23115
