
*** ChampSim Multicore Out-of-Order Simulator ***

Warmup Instructions: 25000000
Simulation Instructions: 25000000
Number of CPUs: 1
LLC sets: 2048
LLC ways: 16
Off-chip DRAM Size: 4096 MB Channels: 1 Width: 64-bit Data Rate: 6400 MT/s
CPU 0 runs /home/yashas/CS683/pa2-lehra-do-prefetcher-wronganswersonly/traces/trace1.champsimtrace.xz
.xz
CPU 0 Bimodal branch predictor
BTB has LRU replacement policy
ITLB has LRU replacement policy
DTLB has LRU replacement policy
CPU 0 STLB arbitrary stride prefetcher
STLB has LRU replacement policy
L1I has LRU replacement policy
L1D has LRU replacement policy
L2C has LRU replacement policy
LLC has LRU replacement policy
Heartbeat CPU 0 instructions: 10000003 cycles: 2826836 heartbeat IPC: 3.53752 cumulative IPC: 3.53752 (Simulation time: 0 hr 0 min 15 sec) 
Heartbeat CPU 0 instructions: 20000000 cycles: 5643139 heartbeat IPC: 3.55075 cumulative IPC: 3.54413 (Simulation time: 0 hr 0 min 31 sec) 

Warmup complete CPU 0 instructions: 25000004 cycles: 7055955 (Simulation time: 0 hr 0 min 39 sec) 

Heartbeat CPU 0 instructions: 30000002 cycles: 23933282 heartbeat IPC: 0.546743 cumulative IPC: 0.296255 (Simulation time: 0 hr 1 min 0 sec) 
Heartbeat CPU 0 instructions: 40000001 cycles: 60094210 heartbeat IPC: 0.276542 cumulative IPC: 0.282815 (Simulation time: 0 hr 1 min 43 sec) 
Heartbeat CPU 0 instructions: 50000000 cycles: 95088836 heartbeat IPC: 0.285758 cumulative IPC: 0.283985 (Simulation time: 0 hr 2 min 25 sec) 
Finished CPU 0 instructions: 25000000 cycles: 88032882 cumulative IPC: 0.283985 (Simulation time: 0 hr 2 min 25 sec) 

ChampSim completed all CPUs

Region of Interest Statistics

CPU 0 cumulative IPC: 0.283985 instructions: 25000000 cycles: 88032882
ITLB TOTAL     ACCESS:    4437512  HIT:    4437512  MISS:          0  HIT %:        100  MISS %:          0   MPKI: 0
ITLB LOAD TRANSLATION ACCESS:    4437512  HIT:    4437512  MISS:          0  HIT %:        100  MISS %:          0   MPKI: 0
ITLB PREFETCH  REQUESTED:          0  ISSUED:          0  USEFUL:          0  USELESS:          0
ITLB USEFUL LOAD PREFETCHES:          0 PREFETCH ISSUED TO LOWER LEVEL:          0  ACCURACY: -nan
ITLB TIMELY PREFETCHES:          0 LATE PREFETCHES: 0 DROPPED PREFETCHES: 0
ITLB PREFETCHES SAME FILL-ORIGIN LEVEL: 0 DIFFERENT FILL-ORIGIN LEVEL: 0
ITLB AVERAGE MISS LATENCY: -nan cycles
ITLB RQ	ACCESS:    4791385	FORWARD:          0	MERGED:     353874	TO_CACHE:    4437511

DTLB TOTAL     ACCESS:    3715127  HIT:    3052209  MISS:     662918  HIT %:    82.1562  MISS %:    17.8438   MPKI: 26.5167
DTLB LOAD TRANSLATION ACCESS:    3715127  HIT:    3052209  MISS:     662918  HIT %:    82.1562  MISS %:    17.8438   MPKI: 26.5167
DTLB PREFETCH  REQUESTED:          0  ISSUED:          0  USEFUL:          0  USELESS:          0
DTLB USEFUL LOAD PREFETCHES:          0 PREFETCH ISSUED TO LOWER LEVEL:          0  ACCURACY: -nan
DTLB TIMELY PREFETCHES:          0 LATE PREFETCHES: 0 DROPPED PREFETCHES: 0
DTLB PREFETCHES SAME FILL-ORIGIN LEVEL: 0 DIFFERENT FILL-ORIGIN LEVEL: 0
DTLB AVERAGE MISS LATENCY: 53.0291 cycles
DTLB RQ	ACCESS:    4314583	FORWARD:          0	MERGED:     591006	TO_CACHE:    3723577

STLB TOTAL     ACCESS:    1004156  HIT:     326019  MISS:     678137  HIT %:     32.467  MISS %:     67.533   MPKI: 27.1255
STLB LOAD TRANSLATION ACCESS:     662918  HIT:     103139  MISS:     559779  HIT %:    15.5583  MISS %:    84.4417   MPKI: 22.3912
STLB PREFETCH TRANSLATION ACCESS:     341238  HIT:     222880  MISS:     118358  HIT %:    65.3151  MISS %:    34.6849   MPKI: 4.73432
STLB PREFETCH  REQUESTED:     359390  ISSUED:     359223  USEFUL:       2791  USELESS:     115862
STLB USEFUL LOAD PREFETCHES:       2791 PREFETCH ISSUED TO LOWER LEVEL:     135635  ACCURACY: 2.05773
STLB TIMELY PREFETCHES:       2791 LATE PREFETCHES: 6 DROPPED PREFETCHES: 17271
STLB PREFETCHES SAME FILL-ORIGIN LEVEL: 135635 DIFFERENT FILL-ORIGIN LEVEL: 0
STLB AVERAGE MISS LATENCY: 69.9407 cycles
STLB RQ	ACCESS:     662920	FORWARD:          0	MERGED:          0	TO_CACHE:     662920
STLB PQ	ACCESS:     359223	FORWARD:          0	MERGED:        365	TO_CACHE:     358858

STLB Hit, L1D data hit: 0
STLB Hit, L2C data hit: 0
STLB Hit, LLC data hit: 0
STLB Hit, LLC data miss: 0
STLB STLB hints to L2: 0
L1D TOTAL     ACCESS:    4295658  HIT:    3090411  MISS:    1205247  HIT %:    71.9427  MISS %:    28.0573   MPKI: 48.2099
L1D LOAD      ACCESS:    3186995  HIT:    2051112  MISS:    1135883  HIT %:    64.3588  MISS %:    35.6412   MPKI: 45.4353
L1D RFO       ACCESS:    1108663  HIT:    1039299  MISS:      69364  HIT %:    93.7435  MISS %:    6.25655   MPKI: 2.77456
L1D PREFETCH  REQUESTED:          0  ISSUED:          0  USEFUL:          0  USELESS:          0
L1D USEFUL LOAD PREFETCHES:          0 PREFETCH ISSUED TO LOWER LEVEL:          0  ACCURACY: -nan
L1D TIMELY PREFETCHES:          0 LATE PREFETCHES: 0 DROPPED PREFETCHES: 0
L1D PREFETCHES SAME FILL-ORIGIN LEVEL: 0 DIFFERENT FILL-ORIGIN LEVEL: 0
L1D AVERAGE MISS LATENCY: 124.716 cycles
L1D RQ	ACCESS:    6163124	FORWARD:          0	MERGED:    2891091	TO_CACHE:    3205918
L1D WQ	ACCESS:    1108674	FORWARD:      66115	MERGED:          9	TO_CACHE:    1108665

L1D UNIQUE REGIONS ACCESSED: 0
L1D REGIONS CONFLICTS: 0
L1D Cross Page Prefetch Requests: 0
L1D Same Page Prefetch Requests: 0
L1D ROI Sum of L1D PQ occupancy: 0
L1D PREFETCHES PUSHED FROM L2C: 0
L1I TOTAL     ACCESS:    4791386  HIT:    4791386  MISS:          0  HIT %:        100  MISS %:          0   MPKI: 0
L1I LOAD      ACCESS:    4791386  HIT:    4791386  MISS:          0  HIT %:        100  MISS %:          0   MPKI: 0
L1I PREFETCH  REQUESTED:          0  ISSUED:          0  USEFUL:          0  USELESS:          0
L1I USEFUL LOAD PREFETCHES:          0 PREFETCH ISSUED TO LOWER LEVEL:          0  ACCURACY: -nan
L1I TIMELY PREFETCHES:          0 LATE PREFETCHES: 0 DROPPED PREFETCHES: 0
L1I PREFETCHES SAME FILL-ORIGIN LEVEL: 0 DIFFERENT FILL-ORIGIN LEVEL: 0
L1I AVERAGE MISS LATENCY: -nan cycles
L1I RQ	ACCESS:    7096898	FORWARD:          0	MERGED:    2305513	TO_CACHE:    4791385

BTB TOTAL     ACCESS:    3283960  HIT:    3283952  MISS:          8  HIT %:    99.9998  MISS %: 0.000243608   MPKI: 0.00032
BTB BRANCH_DIRECT_JUMP	ACCESS:     568310  HIT:     568308  MISS:          2
BTB BRANCH_INDIRECT	ACCESS:          0  HIT:          0  MISS:          0
BTB BRANCH_CONDITIONAL	ACCESS:    1606983  HIT:    1606979  MISS:          4
BTB BRANCH_DIRECT_CALL	ACCESS:     554334  HIT:     554333  MISS:          1
BTB BRANCH_INDIRECT_CALL	ACCESS:          0  HIT:          0  MISS:          0
BTB BRANCH_RETURN	ACCESS:     554333  HIT:     554332  MISS:          1
BTB BRANCH_OTHER ACCESS:          0  HIT:          0  MISS:          0

L2C TOTAL     ACCESS:    2544289  HIT:    1529910  MISS:    1014379  HIT %:    60.1311  MISS %:    39.8689   MPKI: 40.5752
L2C LOAD      ACCESS:    1135882  HIT:     414712  MISS:     721170  HIT %:    36.5101  MISS %:    63.4899   MPKI: 28.8468
L2C DATA LOAD MPKI: 28.8468
L2C INSTRUCTION LOAD MPKI: 0
L2C RFO       ACCESS:      69364  HIT:      40983  MISS:      28381  HIT %:     59.084  MISS %:     40.916   MPKI: 1.13524
L2C WRITEBACK ACCESS:     554350  HIT:     554350  MISS:          0  HIT %:        100  MISS %:          0   MPKI: 0
L2C LOAD TRANSLATION ACCESS:     623171  HIT:     404718  MISS:     218453  HIT %:    64.9449  MISS %:    35.0551   MPKI: 8.73812
L2C PREFETCH TRANSLATION ACCESS:     161522  HIT:     115147  MISS:      46375  HIT %:    71.2887  MISS %:    28.7113   MPKI: 1.855
L2C PREFETCH  REQUESTED:          0  ISSUED:          0  USEFUL:      33708  USELESS:      12699
L2C USEFUL LOAD PREFETCHES:      33708 PREFETCH ISSUED TO LOWER LEVEL:          0  ACCURACY: inf
L2C TIMELY PREFETCHES:      33708 LATE PREFETCHES: 0 DROPPED PREFETCHES: 0
L2C PREFETCHES SAME FILL-ORIGIN LEVEL: 0 DIFFERENT FILL-ORIGIN LEVEL: 0
L2C AVERAGE MISS LATENCY: 140.232 cycles
L2C RQ	ACCESS:    1989940	FORWARD:          0	MERGED:          0	TO_CACHE:    1989940
L2C WQ	ACCESS:     554350	FORWARD:          0	MERGED:          0	TO_CACHE:     554350

L2C Instructions Evicting Data 0
L2C Translations Evicting Data 159678
L2C Data Evicting Data 589681
L2C Instructions Evicting Instructions 0
L2C Translations Evicting Instructions 0
L2C Data Evicting Instructions 0
L2C Instructions Evicting Translations 0
L2C Translations Evicting Translations 105150
L2C Data Evicting Translations 159870
L2C Dense regions hint from L2: 0
PSCL5 TOTAL     ACCESS:     695409  HIT:     695409  MISS:          0  HIT %:        100  MISS %:          0   MPKI: 0
PSCL5 LOAD TRANSLATION ACCESS:     559774  HIT:     559774  MISS:          0  HIT %:        100  MISS %:          0   MPKI: 0
PSCL5 PREFETCH TRANSLATION ACCESS:     135635  HIT:     135635  MISS:          0  HIT %:        100  MISS %:          0   MPKI: 0
PSCL5 PREFETCH  REQUESTED:          0  ISSUED:          0  USEFUL:          0  USELESS:          0
PSCL5 USEFUL LOAD PREFETCHES:          0 PREFETCH ISSUED TO LOWER LEVEL:          0  ACCURACY: -nan
PSCL5 TIMELY PREFETCHES:          0 LATE PREFETCHES: 0 DROPPED PREFETCHES: 0
PSCL5 PREFETCHES SAME FILL-ORIGIN LEVEL: 0 DIFFERENT FILL-ORIGIN LEVEL: 0

PSCL4 TOTAL     ACCESS:     695409  HIT:     695409  MISS:          0  HIT %:        100  MISS %:          0   MPKI: 0
PSCL4 LOAD TRANSLATION ACCESS:     559774  HIT:     559774  MISS:          0  HIT %:        100  MISS %:          0   MPKI: 0
PSCL4 PREFETCH TRANSLATION ACCESS:     135635  HIT:     135635  MISS:          0  HIT %:        100  MISS %:          0   MPKI: 0
PSCL4 PREFETCH  REQUESTED:          0  ISSUED:          0  USEFUL:          0  USELESS:          0
PSCL4 USEFUL LOAD PREFETCHES:          0 PREFETCH ISSUED TO LOWER LEVEL:          0  ACCURACY: -nan
PSCL4 TIMELY PREFETCHES:          0 LATE PREFETCHES: 0 DROPPED PREFETCHES: 0
PSCL4 PREFETCHES SAME FILL-ORIGIN LEVEL: 0 DIFFERENT FILL-ORIGIN LEVEL: 0

PSCL3 TOTAL     ACCESS:     695097  HIT:     695097  MISS:          0  HIT %:        100  MISS %:          0   MPKI: 0
PSCL3 LOAD TRANSLATION ACCESS:     559774  HIT:     559774  MISS:          0  HIT %:        100  MISS %:          0   MPKI: 0
PSCL3 PREFETCH TRANSLATION ACCESS:     135323  HIT:     135323  MISS:          0  HIT %:        100  MISS %:          0   MPKI: 0
PSCL3 PREFETCH  REQUESTED:          0  ISSUED:          0  USEFUL:          0  USELESS:          0
PSCL3 USEFUL LOAD PREFETCHES:          0 PREFETCH ISSUED TO LOWER LEVEL:          0  ACCURACY: -nan
PSCL3 TIMELY PREFETCHES:          0 LATE PREFETCHES: 0 DROPPED PREFETCHES: 0
PSCL3 PREFETCHES SAME FILL-ORIGIN LEVEL: 0 DIFFERENT FILL-ORIGIN LEVEL: 0

PSCL2 TOTAL     ACCESS:     681249  HIT:     604054  MISS:      77195  HIT %:    88.6686  MISS %:    11.3314   MPKI: 3.0878
PSCL2 LOAD TRANSLATION ACCESS:     573571  HIT:     496376  MISS:      77195  HIT %:    86.5413  MISS %:    13.4587   MPKI: 3.0878
PSCL2 PREFETCH TRANSLATION ACCESS:     107678  HIT:     107678  MISS:          0  HIT %:        100  MISS %:          0   MPKI: 0
PSCL2 PREFETCH  REQUESTED:          0  ISSUED:          0  USEFUL:          0  USELESS:          0
PSCL2 USEFUL LOAD PREFETCHES:          0 PREFETCH ISSUED TO LOWER LEVEL:          0  ACCURACY: -nan
PSCL2 TIMELY PREFETCHES:          0 LATE PREFETCHES: 0 DROPPED PREFETCHES: 0
PSCL2 PREFETCHES SAME FILL-ORIGIN LEVEL: 0 DIFFERENT FILL-ORIGIN LEVEL: 0

LLC TOTAL     ACCESS:    1569070  HIT:     914462  MISS:     654608  HIT %:    58.2805  MISS %:    41.7195   MPKI: 26.1843
LLC LOAD      ACCESS:     721170  HIT:      79697  MISS:     641473  HIT %:    11.0511  MISS %:    88.9489   MPKI: 25.6589
LLC RFO       ACCESS:      28381  HIT:      28377  MISS:          4  HIT %:    99.9859  MISS %:  0.0140939   MPKI: 0.00016
LLC WRITEBACK ACCESS:     554691  HIT:     554691  MISS:          0  HIT %:        100  MISS %:          0   MPKI: 0
LLC LOAD TRANSLATION ACCESS:     218453  HIT:     211191  MISS:       7262  HIT %:    96.6757  MISS %:    3.32428   MPKI: 0.29048
LLC PREFETCH TRANSLATION ACCESS:      46375  HIT:      40506  MISS:       5869  HIT %:    87.3445  MISS %:    12.6555   MPKI: 0.23476
LLC PREFETCH  REQUESTED:          0  ISSUED:          0  USEFUL:       4061  USELESS:       1861
LLC USEFUL LOAD PREFETCHES:       4061 PREFETCH ISSUED TO LOWER LEVEL:          0  ACCURACY: inf
LLC TIMELY PREFETCHES:       4061 LATE PREFETCHES: 0 DROPPED PREFETCHES: 0
LLC PREFETCHES SAME FILL-ORIGIN LEVEL: 0 DIFFERENT FILL-ORIGIN LEVEL: 0
LLC AVERAGE MISS LATENCY: 170.627 cycles
LLC RQ	ACCESS:    1014379	FORWARD:          0	MERGED:          0	TO_CACHE:    1014379
LLC WQ	ACCESS:     554690	FORWARD:          0	MERGED:          0	TO_CACHE:     554690

LLC Dense regions hint to LLC: 0

RAW hits: 487406
Loads Generated: 6650534
Loads sent to L1D: 6163124
Stores Generated: 1108672
Stores sent to L1D: 1108674
Major fault: 0 Minor fault: 23115
Allocated PAGES: 23115
CPU 0 STLB arbitrary stride prefetcher final stats
Degree: 5

DRAM Statistics
 CHANNEL 0
 RQ ROW_BUFFER_HIT:        863  ROW_BUFFER_MISS:     653745
 DBUS_CONGESTED:          2
 WQ ROW_BUFFER_HIT:     204060  ROW_BUFFER_MISS:     350175  FULL:          0

 AVG_CONGESTED_CYCLE: 4
 All warmup complete: 2
Channel 0 Bank busy for read cycles: 0
Channel 0 Bank busy for write cycles: 0
Channel 0
Rank 0
0banks busy for read cycles: 2693437
0banks busy for write cycles: 61384
1banks busy for read cycles: 20564967
1banks busy for write cycles: 4770906
2banks busy for read cycles: 14202070
2banks busy for write cycles: 6881167
3banks busy for read cycles: 11404151
3banks busy for write cycles: 9856295
4banks busy for read cycles: 3662562
4banks busy for write cycles: 8174002
5banks busy for read cycles: 54517
5banks busy for write cycles: 3268613
6banks busy for read cycles: 114
6banks busy for write cycles: 1313800
7banks busy for read cycles: 0
7banks busy for write cycles: 624186
8banks busy for read cycles: 0
8banks busy for write cycles: 500712

CPU 0 Branch Prediction Accuracy: 99.9685% MPKI: 0.04912 Average ROB Occupancy at Mispredict: 155.862
Branch types
NOT_BRANCH: 21105622 84.4225%
BRANCH_DIRECT_JUMP: 568310 2.27324%
BRANCH_INDIRECT: 0 0%
BRANCH_CONDITIONAL: 2217333 8.86933%
BRANCH_DIRECT_CALL: 554334 2.21734%
BRANCH_INDIRECT_CALL: 0 0%
BRANCH_RETURN: 554333 2.21733%
BRANCH_OTHER: 0 0%

DRAM PAGES: 1048576
Allocated PAGES: 23115
