
*** ChampSim Multicore Out-of-Order Simulator ***

Warmup Instructions: 25000000
Simulation Instructions: 25000000
Number of CPUs: 1
LLC sets: 2048
LLC ways: 16
Off-chip DRAM Size: 4096 MB Channels: 1 Width: 64-bit Data Rate: 6400 MT/s
CPU 0 runs /home/yashas/CS683/pa2-lehra-do-prefetcher-wronganswersonly/traces/trace2.champsimtrace.xz
.xz
CPU 0 Bimodal branch predictor
BTB has LRU replacement policy
ITLB has LRU replacement policy
DTLB has LRU replacement policy
STLB has LRU replacement policy
L1I has LRU replacement policy
CPU 0 L1D IP-based stride prefetcher
L1D has LRU replacement policy
L2C has LRU replacement policy
LLC has LRU replacement policy
Heartbeat CPU 0 instructions: 10000002 cycles: 3758212 heartbeat IPC: 2.66084 cumulative IPC: 2.66084 (Simulation time: 0 hr 0 min 16 sec) 
Heartbeat CPU 0 instructions: 20000001 cycles: 7518566 heartbeat IPC: 2.65932 cumulative IPC: 2.66008 (Simulation time: 0 hr 0 min 33 sec) 

Warmup complete CPU 0 instructions: 25000001 cycles: 9398011 (Simulation time: 0 hr 0 min 41 sec) 

Heartbeat CPU 0 instructions: 30000001 cycles: 57877036 heartbeat IPC: 0.198576 cumulative IPC: 0.103137 (Simulation time: 0 hr 1 min 12 sec) 
Heartbeat CPU 0 instructions: 40000002 cycles: 154318196 heartbeat IPC: 0.10369 cumulative IPC: 0.103505 (Simulation time: 0 hr 2 min 14 sec) 
Heartbeat CPU 0 instructions: 50000000 cycles: 249145912 heartbeat IPC: 0.105454 cumulative IPC: 0.104276 (Simulation time: 0 hr 3 min 15 sec) 
Finished CPU 0 instructions: 25000000 cycles: 239747923 cumulative IPC: 0.104276 (Simulation time: 0 hr 3 min 15 sec) 

ChampSim completed all CPUs

Region of Interest Statistics

CPU 0 cumulative IPC: 0.104276 instructions: 25000000 cycles: 239747923
ITLB TOTAL     ACCESS:    5676346  HIT:    5676346  MISS:          0  HIT %:        100  MISS %:          0   MPKI: 0
ITLB LOAD TRANSLATION ACCESS:    5676346  HIT:    5676346  MISS:          0  HIT %:        100  MISS %:          0   MPKI: 0
ITLB PREFETCH  REQUESTED:          0  ISSUED:          0  USEFUL:          0  USELESS:          0
ITLB USEFUL LOAD PREFETCHES:          0 PREFETCH ISSUED TO LOWER LEVEL:          0  ACCURACY: -nan
ITLB TIMELY PREFETCHES:          0 LATE PREFETCHES: 0 DROPPED PREFETCHES: 0
ITLB PREFETCHES SAME FILL-ORIGIN LEVEL: 0 DIFFERENT FILL-ORIGIN LEVEL: 0
ITLB AVERAGE MISS LATENCY: -nan cycles
ITLB RQ	ACCESS:    5761776	FORWARD:          0	MERGED:      85430	TO_CACHE:    5676346

DTLB TOTAL     ACCESS:    3871257  HIT:    3837244  MISS:      34013  HIT %:    99.1214  MISS %:   0.878604   MPKI: 1.36052
DTLB LOAD TRANSLATION ACCESS:    3871257  HIT:    3837244  MISS:      34013  HIT %:    99.1214  MISS %:   0.878604   MPKI: 1.36052
DTLB PREFETCH  REQUESTED:          0  ISSUED:          0  USEFUL:          0  USELESS:          0
DTLB USEFUL LOAD PREFETCHES:          0 PREFETCH ISSUED TO LOWER LEVEL:          0  ACCURACY: -nan
DTLB TIMELY PREFETCHES:          0 LATE PREFETCHES: 0 DROPPED PREFETCHES: 0
DTLB PREFETCHES SAME FILL-ORIGIN LEVEL: 0 DIFFERENT FILL-ORIGIN LEVEL: 0
DTLB AVERAGE MISS LATENCY: 106.459 cycles
DTLB RQ	ACCESS:    4554152	FORWARD:          0	MERGED:     682773	TO_CACHE:    3871379

STLB TOTAL     ACCESS:      72516  HIT:      39811  MISS:      32705  HIT %:    54.8996  MISS %:    45.1004   MPKI: 1.3082
STLB LOAD TRANSLATION ACCESS:      34013  HIT:       1309  MISS:      32704  HIT %:    3.84853  MISS %:    96.1515   MPKI: 1.30816
STLB TRANSLATION FROM L1D PREFETCHER ACCESS:      38503  HIT:      38502  MISS:          1  HIT %:    99.9974  MISS %:  0.0025972   MPKI: 4e-05
STLB PREFETCH  REQUESTED:          0  ISSUED:          0  USEFUL:          1  USELESS:          0
STLB USEFUL LOAD PREFETCHES:          1 PREFETCH ISSUED TO LOWER LEVEL:          0  ACCURACY: inf
STLB TIMELY PREFETCHES:          1 LATE PREFETCHES: 0 DROPPED PREFETCHES: 0
STLB PREFETCHES SAME FILL-ORIGIN LEVEL: 0 DIFFERENT FILL-ORIGIN LEVEL: 0
STLB AVERAGE MISS LATENCY: 101.352 cycles
STLB RQ	ACCESS:     221114	FORWARD:          0	MERGED:     148598	TO_CACHE:      72516

STLB Hit, L1D data hit: 0
STLB Hit, L2C data hit: 0
STLB Hit, LLC data hit: 0
STLB Hit, LLC data miss: 0
STLB STLB hints to L2: 0
L1D TOTAL     ACCESS:    4158636  HIT:    2407201  MISS:    1751435  HIT %:    57.8844  MISS %:    42.1156   MPKI: 70.0574
L1D LOAD      ACCESS:    3647080  HIT:    2032926  MISS:    1614154  HIT %:    55.7412  MISS %:    44.2588   MPKI: 64.5662
L1D RFO       ACCESS:     333802  HIT:     333105  MISS:        697  HIT %:    99.7912  MISS %:   0.208806   MPKI: 0.02788
L1D PREFETCH  ACCESS:     177754  HIT:      41170  MISS:     136584  HIT %:    23.1612  MISS %:    76.8388   MPKI: 5.46336
AGUS PREFETCH L1 MISS: 0
L1D PREFETCH  REQUESTED:     374562  ISSUED:     374562  USEFUL:     134983  USELESS:       1601
L1D USEFUL LOAD PREFETCHES:     134983 PREFETCH ISSUED TO LOWER LEVEL:     144115  ACCURACY: 93.6634
L1D TIMELY PREFETCHES:     134983 LATE PREFETCHES: 7525 DROPPED PREFETCHES: 0
L1D PREFETCHES SAME FILL-ORIGIN LEVEL: 144115 DIFFERENT FILL-ORIGIN LEVEL: 0
L1D AVERAGE MISS LATENCY: 120.74 cycles
L1D RQ	ACCESS:    8972701	FORWARD:          0	MERGED:    4750894	TO_CACHE:    4220346
L1D WQ	ACCESS:     370377	FORWARD:       1461	MERGED:      36571	TO_CACHE:     333806
L1D PQ	ACCESS:     187461	FORWARD:          0	MERGED:        360	TO_CACHE:     187101

L1D UNIQUE REGIONS ACCESSED: 0
L1D REGIONS CONFLICTS: 0
L1D Cross Page Prefetch Requests: 0
L1D Same Page Prefetch Requests: 3190880
L1D ROI Sum of L1D PQ occupancy: 2612087
L1D PREFETCHES PUSHED FROM L2C: 0
L1I TOTAL     ACCESS:    5761775  HIT:    5761775  MISS:          0  HIT %:        100  MISS %:          0   MPKI: 0
L1I LOAD      ACCESS:    5761775  HIT:    5761775  MISS:          0  HIT %:        100  MISS %:          0   MPKI: 0
L1I PREFETCH  REQUESTED:          0  ISSUED:          0  USEFUL:          0  USELESS:          0
L1I USEFUL LOAD PREFETCHES:          0 PREFETCH ISSUED TO LOWER LEVEL:          0  ACCURACY: -nan
L1I TIMELY PREFETCHES:          0 LATE PREFETCHES: 0 DROPPED PREFETCHES: 0
L1I PREFETCHES SAME FILL-ORIGIN LEVEL: 0 DIFFERENT FILL-ORIGIN LEVEL: 0
L1I AVERAGE MISS LATENCY: -nan cycles
L1I RQ	ACCESS:    8390545	FORWARD:          0	MERGED:    2628769	TO_CACHE:    5761776

BTB TOTAL     ACCESS:    5953193  HIT:    5953095  MISS:         98  HIT %:    99.9984  MISS %: 0.00164618   MPKI: 0.00392
BTB BRANCH_DIRECT_JUMP	ACCESS:      85874  HIT:      85848  MISS:         26
BTB BRANCH_INDIRECT	ACCESS:          0  HIT:          0  MISS:          0
BTB BRANCH_CONDITIONAL	ACCESS:    5783213  HIT:    5783164  MISS:         49
BTB BRANCH_DIRECT_CALL	ACCESS:      42053  HIT:      42043  MISS:         10
BTB BRANCH_INDIRECT_CALL	ACCESS:          0  HIT:          0  MISS:          0
BTB BRANCH_RETURN	ACCESS:      42053  HIT:      42040  MISS:         13
BTB BRANCH_OTHER ACCESS:          0  HIT:          0  MISS:          0

L2C TOTAL     ACCESS:    1787568  HIT:      29985  MISS:    1757583  HIT %:    1.67742  MISS %:    98.3226   MPKI: 70.3033
L2C LOAD      ACCESS:    1606628  HIT:       1255  MISS:    1605373  HIT %:  0.0781139  MISS %:    99.9219   MPKI: 64.2149
L2C DATA LOAD MPKI: 64.2149
L2C INSTRUCTION LOAD MPKI: 0
L2C RFO       ACCESS:        691  HIT:         21  MISS:        670  HIT %:    3.03907  MISS %:    96.9609   MPKI: 0.0268
L2C PREFETCH  ACCESS:     144115  HIT:         91  MISS:     144024  HIT %:   0.063144  MISS %:    99.9369   MPKI: 5.76096
AGUS PREFETCH L1 MISS: 0
L2C DATA PREFETCH MPKI: 5.76096
L2C INSTRUCTION PREFETCH MPKI: 0
L2C WRITEBACK ACCESS:       2775  HIT:       2767  MISS:          8  HIT %:    99.7117  MISS %:   0.288288   MPKI: 0.00032
L2C LOAD TRANSLATION ACCESS:      33358  HIT:      25851  MISS:       7507  HIT %:    77.4957  MISS %:    22.5043   MPKI: 0.30028
L2C TRANSLATION FROM L1D PREFETCHER ACCESS:          1  HIT:          0  MISS:          1  HIT %:          0  MISS %:        100   MPKI: 4e-05
L2C PREFETCH  REQUESTED:          0  ISSUED:          0  USEFUL:        462  USELESS:     148573
L2C USEFUL LOAD PREFETCHES:        462 PREFETCH ISSUED TO LOWER LEVEL:     144024  ACCURACY: 0.32078
L2C TIMELY PREFETCHES:        462 LATE PREFETCHES: 0 DROPPED PREFETCHES: 0
L2C PREFETCHES SAME FILL-ORIGIN LEVEL: 0 DIFFERENT FILL-ORIGIN LEVEL: 0
L2C AVERAGE MISS LATENCY: 106.066 cycles
L2C RQ	ACCESS:    1640679	FORWARD:          0	MERGED:          0	TO_CACHE:    1640678
L2C WQ	ACCESS:       2775	FORWARD:          1	MERGED:          0	TO_CACHE:       2775
L2C PQ	ACCESS:     144115	FORWARD:          0	MERGED:          0	TO_CACHE:     144115

L2C Instructions Evicting Data 0
L2C Translations Evicting Data 7481
L2C Data Evicting Data 1742600
L2C Instructions Evicting Instructions 0
L2C Translations Evicting Instructions 0
L2C Data Evicting Instructions 0
L2C Instructions Evicting Translations 0
L2C Translations Evicting Translations 27
L2C Data Evicting Translations 7467
L2C Dense regions hint from L2: 0
PSCL5 TOTAL     ACCESS:      32705  HIT:      32705  MISS:          0  HIT %:        100  MISS %:          0   MPKI: 0
PSCL5 LOAD TRANSLATION ACCESS:      32704  HIT:      32704  MISS:          0  HIT %:        100  MISS %:          0   MPKI: 0
PSCL5 TRANSLATION FROM L1D PREFETCHER ACCESS:          1  HIT:          1  MISS:          0  HIT %:        100  MISS %:          0   MPKI: 0
PSCL5 PREFETCH  REQUESTED:          0  ISSUED:          0  USEFUL:          0  USELESS:          0
PSCL5 USEFUL LOAD PREFETCHES:          0 PREFETCH ISSUED TO LOWER LEVEL:          0  ACCURACY: -nan
PSCL5 TIMELY PREFETCHES:          0 LATE PREFETCHES: 0 DROPPED PREFETCHES: 0
PSCL5 PREFETCHES SAME FILL-ORIGIN LEVEL: 0 DIFFERENT FILL-ORIGIN LEVEL: 0

PSCL4 TOTAL     ACCESS:      32705  HIT:      32705  MISS:          0  HIT %:        100  MISS %:          0   MPKI: 0
PSCL4 LOAD TRANSLATION ACCESS:      32704  HIT:      32704  MISS:          0  HIT %:        100  MISS %:          0   MPKI: 0
PSCL4 TRANSLATION FROM L1D PREFETCHER ACCESS:          1  HIT:          1  MISS:          0  HIT %:        100  MISS %:          0   MPKI: 0
PSCL4 PREFETCH  REQUESTED:          0  ISSUED:          0  USEFUL:          0  USELESS:          0
PSCL4 USEFUL LOAD PREFETCHES:          0 PREFETCH ISSUED TO LOWER LEVEL:          0  ACCURACY: -nan
PSCL4 TIMELY PREFETCHES:          0 LATE PREFETCHES: 0 DROPPED PREFETCHES: 0
PSCL4 PREFETCHES SAME FILL-ORIGIN LEVEL: 0 DIFFERENT FILL-ORIGIN LEVEL: 0

PSCL3 TOTAL     ACCESS:      32705  HIT:      32702  MISS:          3  HIT %:    99.9908  MISS %: 0.00917291   MPKI: 0.00012
PSCL3 LOAD TRANSLATION ACCESS:      32704  HIT:      32701  MISS:          3  HIT %:    99.9908  MISS %: 0.00917319   MPKI: 0.00012
PSCL3 TRANSLATION FROM L1D PREFETCHER ACCESS:          1  HIT:          1  MISS:          0  HIT %:        100  MISS %:          0   MPKI: 0
PSCL3 PREFETCH  REQUESTED:          0  ISSUED:          0  USEFUL:          0  USELESS:          0
PSCL3 USEFUL LOAD PREFETCHES:          0 PREFETCH ISSUED TO LOWER LEVEL:          0  ACCURACY: -nan
PSCL3 TIMELY PREFETCHES:          0 LATE PREFETCHES: 0 DROPPED PREFETCHES: 0
PSCL3 PREFETCHES SAME FILL-ORIGIN LEVEL: 0 DIFFERENT FILL-ORIGIN LEVEL: 0

PSCL2 TOTAL     ACCESS:      32705  HIT:      31956  MISS:        749  HIT %:    97.7098  MISS %:    2.29017   MPKI: 0.02996
PSCL2 LOAD TRANSLATION ACCESS:      32704  HIT:      31955  MISS:        749  HIT %:    97.7098  MISS %:    2.29024   MPKI: 0.02996
PSCL2 TRANSLATION FROM L1D PREFETCHER ACCESS:          1  HIT:          1  MISS:          0  HIT %:        100  MISS %:          0   MPKI: 0
PSCL2 PREFETCH  REQUESTED:          0  ISSUED:          0  USEFUL:          0  USELESS:          0
PSCL2 USEFUL LOAD PREFETCHES:          0 PREFETCH ISSUED TO LOWER LEVEL:          0  ACCURACY: -nan
PSCL2 TIMELY PREFETCHES:          0 LATE PREFETCHES: 0 DROPPED PREFETCHES: 0
PSCL2 PREFETCHES SAME FILL-ORIGIN LEVEL: 0 DIFFERENT FILL-ORIGIN LEVEL: 0

LLC TOTAL     ACCESS:    1760344  HIT:       3173  MISS:    1757171  HIT %:   0.180249  MISS %:    99.8198   MPKI: 70.2868
LLC LOAD      ACCESS:    1605373  HIT:         82  MISS:    1605291  HIT %: 0.00510785  MISS %:    99.9949   MPKI: 64.2116
LLC RFO       ACCESS:        670  HIT:          0  MISS:        670  HIT %:          0  MISS %:        100   MPKI: 0.0268
LLC PREFETCH  ACCESS:     144024  HIT:          3  MISS:     144021  HIT %: 0.00208299  MISS %:    99.9979   MPKI: 5.76084
AGUS PREFETCH L1 MISS: 0
LLC WRITEBACK ACCESS:       2769  HIT:       2761  MISS:          8  HIT %:    99.7111  MISS %:   0.288913   MPKI: 0.00032
LLC LOAD TRANSLATION ACCESS:       7507  HIT:        327  MISS:       7180  HIT %:    4.35593  MISS %:    95.6441   MPKI: 0.2872
LLC TRANSLATION FROM L1D PREFETCHER ACCESS:          1  HIT:          0  MISS:          1  HIT %:          0  MISS %:        100   MPKI: 4e-05
LLC PREFETCH  REQUESTED:          0  ISSUED:          0  USEFUL:         31  USELESS:     164070
LLC USEFUL LOAD PREFETCHES:         31 PREFETCH ISSUED TO LOWER LEVEL:     144021  ACCURACY: 0.0215246
LLC TIMELY PREFETCHES:         31 LATE PREFETCHES: 0 DROPPED PREFETCHES: 0
LLC PREFETCHES SAME FILL-ORIGIN LEVEL: 0 DIFFERENT FILL-ORIGIN LEVEL: 0
LLC AVERAGE MISS LATENCY: 76.0788 cycles
LLC RQ	ACCESS:    1613551	FORWARD:          0	MERGED:          0	TO_CACHE:    1613551
LLC WQ	ACCESS:       2769	FORWARD:          0	MERGED:          0	TO_CACHE:       2769
LLC PQ	ACCESS:     144024	FORWARD:          0	MERGED:          0	TO_CACHE:     144024

LLC Dense regions hint to LLC: 0

RAW hits: 4246
Loads Generated: 8976947
Loads sent to L1D: 8972701
Stores Generated: 370377
Stores sent to L1D: 370377
Major fault: 0 Minor fault: 48857
Allocated PAGES: 48857
CPU 0 L1D IP-based stride prefetcher final stats
Degree: 5

DRAM Statistics
 CHANNEL 0
 RQ ROW_BUFFER_HIT:    1652440  ROW_BUFFER_MISS:     104723
 DBUS_CONGESTED:          1
 WQ ROW_BUFFER_HIT:       1542  ROW_BUFFER_MISS:       1220  FULL:          0

 AVG_CONGESTED_CYCLE: 6
 All warmup complete: 2
Channel 0 Bank busy for read cycles: 0
Channel 0 Bank busy for write cycles: 0
Channel 0
Rank 0
0banks busy for read cycles: 147950112
0banks busy for write cycles: 1575
1banks busy for read cycles: 86972297
1banks busy for write cycles: 1163207
2banks busy for read cycles: 1497434
2banks busy for write cycles: 406290
3banks busy for read cycles: 93749
3banks busy for write cycles: 165632
4banks busy for read cycles: 83914
4banks busy for write cycles: 55600
5banks busy for read cycles: 385576
5banks busy for write cycles: 17167
6banks busy for read cycles: 842556
6banks busy for write cycles: 3417
7banks busy for read cycles: 108990
7banks busy for write cycles: 22
8banks busy for read cycles: 32
8banks busy for write cycles: 354

CPU 0 Branch Prediction Accuracy: 99.1323% MPKI: 3.09396 Average ROB Occupancy at Mispredict: 122.325
Branch types
NOT_BRANCH: 16085561 64.3422%
BRANCH_DIRECT_JUMP: 85874 0.343496%
BRANCH_INDIRECT: 0 0%
BRANCH_CONDITIONAL: 8744101 34.9764%
BRANCH_DIRECT_CALL: 42053 0.168212%
BRANCH_INDIRECT_CALL: 0 0%
BRANCH_RETURN: 42053 0.168212%
BRANCH_OTHER: 0 0%

DRAM PAGES: 1048576
Allocated PAGES: 48857
