
*** ChampSim Multicore Out-of-Order Simulator ***

Warmup Instructions: 25000000
Simulation Instructions: 25000000
Number of CPUs: 1
LLC sets: 2048
LLC ways: 16
Off-chip DRAM Size: 4096 MB Channels: 1 Width: 64-bit Data Rate: 6400 MT/s
CPU 0 runs /home/yashas/CS683/pa2-lehra-do-prefetcher-wronganswersonly/traces/trace3.champsimtrace.xz
.xz
CPU 0 Bimodal branch predictor
BTB has LRU replacement policy
ITLB has LRU replacement policy
DTLB has LRU replacement policy
STLB has LRU replacement policy
L1I has LRU replacement policy
CPU 0 L1D Optimized prefetcher
L1D has LRU replacement policy
L2C has LRU replacement policy
LLC has LRU replacement policy
Heartbeat CPU 0 instructions: 10000001 cycles: 3773639 heartbeat IPC: 2.64996 cumulative IPC: 2.64996 (Simulation time: 0 hr 0 min 18 sec) 
Heartbeat CPU 0 instructions: 20000000 cycles: 7519176 heartbeat IPC: 2.66984 cumulative IPC: 2.65987 (Simulation time: 0 hr 0 min 37 sec) 

Warmup complete CPU 0 instructions: 25000004 cycles: 9422659 (Simulation time: 0 hr 0 min 46 sec) 

IP_STRIDE Accuracy is 62.6647 
Switching to CPLX L1D prefetcher
CPLX Accuracy is 67.4634 
Switching to NL L1D prefetcher
NL Accuracy is 25.5246 
Prefetcher set to CPLX
Heartbeat CPU 0 instructions: 30000001 cycles: 39684120 heartbeat IPC: 0.310897 cumulative IPC: 0.165227 (Simulation time: 0 hr 1 min 8 sec) 
Heartbeat CPU 0 instructions: 40000001 cycles: 100418741 heartbeat IPC: 0.164651 cumulative IPC: 0.164842 (Simulation time: 0 hr 1 min 52 sec) 
Heartbeat CPU 0 instructions: 50000000 cycles: 164486290 heartbeat IPC: 0.156085 cumulative IPC: 0.161224 (Simulation time: 0 hr 2 min 37 sec) 
Finished CPU 0 instructions: 25000000 cycles: 155063633 cumulative IPC: 0.161224 (Simulation time: 0 hr 2 min 37 sec) 

ChampSim completed all CPUs

Region of Interest Statistics

CPU 0 cumulative IPC: 0.161224 instructions: 25000000 cycles: 155063633
ITLB TOTAL     ACCESS:    4048615  HIT:    4048615  MISS:          0  HIT %:        100  MISS %:          0   MPKI: 0
ITLB LOAD TRANSLATION ACCESS:    4048615  HIT:    4048615  MISS:          0  HIT %:        100  MISS %:          0   MPKI: 0
ITLB PREFETCH  REQUESTED:          0  ISSUED:          0  USEFUL:          0  USELESS:          0
ITLB USEFUL LOAD PREFETCHES:          0 PREFETCH ISSUED TO LOWER LEVEL:          0  ACCURACY: -nan
ITLB TIMELY PREFETCHES:          0 LATE PREFETCHES: 0 DROPPED PREFETCHES: 0
ITLB PREFETCHES SAME FILL-ORIGIN LEVEL: 0 DIFFERENT FILL-ORIGIN LEVEL: 0
ITLB AVERAGE MISS LATENCY: -nan cycles
ITLB RQ	ACCESS:    4099770	FORWARD:          0	MERGED:      51156	TO_CACHE:    4048614

DTLB TOTAL     ACCESS:    5229683  HIT:    3025752  MISS:    2203931  HIT %:    57.8573  MISS %:    42.1427   MPKI: 88.1572
DTLB LOAD TRANSLATION ACCESS:    5229683  HIT:    3025752  MISS:    2203931  HIT %:    57.8573  MISS %:    42.1427   MPKI: 88.1572
DTLB PREFETCH  REQUESTED:          0  ISSUED:          0  USEFUL:          0  USELESS:          0
DTLB USEFUL LOAD PREFETCHES:          0 PREFETCH ISSUED TO LOWER LEVEL:          0  ACCURACY: -nan
DTLB TIMELY PREFETCHES:          0 LATE PREFETCHES: 0 DROPPED PREFETCHES: 0
DTLB PREFETCHES SAME FILL-ORIGIN LEVEL: 0 DIFFERENT FILL-ORIGIN LEVEL: 0
DTLB AVERAGE MISS LATENCY: 11.1312 cycles
DTLB RQ	ACCESS:    5759410	FORWARD:          0	MERGED:     495129	TO_CACHE:    5264281

STLB TOTAL     ACCESS:    2838539  HIT:    2809457  MISS:      29082  HIT %:    98.9755  MISS %:    1.02454   MPKI: 1.16328
STLB LOAD TRANSLATION ACCESS:    2203931  HIT:    2174849  MISS:      29082  HIT %:    98.6804  MISS %:    1.31955   MPKI: 1.16328
STLB TRANSLATION FROM L1D PREFETCHER ACCESS:     634608  HIT:     634608  MISS:          0  HIT %:        100  MISS %:          0   MPKI: 0
STLB PREFETCH  REQUESTED:          0  ISSUED:          0  USEFUL:          0  USELESS:          0
STLB USEFUL LOAD PREFETCHES:          0 PREFETCH ISSUED TO LOWER LEVEL:          0  ACCURACY: -nan
STLB TIMELY PREFETCHES:          0 LATE PREFETCHES: 0 DROPPED PREFETCHES: 0
STLB PREFETCHES SAME FILL-ORIGIN LEVEL: 0 DIFFERENT FILL-ORIGIN LEVEL: 0
STLB AVERAGE MISS LATENCY: 135.37 cycles
STLB RQ	ACCESS:    5143632	FORWARD:          0	MERGED:    2305093	TO_CACHE:    2838539

STLB Hit, L1D data hit: 0
STLB Hit, L2C data hit: 0
STLB Hit, LLC data hit: 0
STLB Hit, LLC data miss: 0
STLB STLB hints to L2: 0
L1D TOTAL     ACCESS:    7313937  HIT:    3154288  MISS:    4159649  HIT %:    43.1271  MISS %:    56.8729   MPKI: 166.386
L1D LOAD      ACCESS:    5222403  HIT:    2003064  MISS:    3219339  HIT %:    38.3552  MISS %:    61.6448   MPKI: 128.774
L1D RFO       ACCESS:     423895  HIT:     416023  MISS:       7872  HIT %:    98.1429  MISS %:    1.85706   MPKI: 0.31488
L1D PREFETCH  ACCESS:    1667639  HIT:     735201  MISS:     932438  HIT %:    44.0863  MISS %:    55.9137   MPKI: 37.2975
AGUS PREFETCH L1 MISS: 0
L1D PREFETCH  REQUESTED:    6572401  ISSUED:    6570646  USEFUL:     659425  USELESS:     272951
L1D USEFUL LOAD PREFETCHES:     659425 PREFETCH ISSUED TO LOWER LEVEL:    1201133  ACCURACY: 54.9002
L1D TIMELY PREFETCHES:     659425 LATE PREFETCHES: 268695 DROPPED PREFETCHES: 0
L1D PREFETCHES SAME FILL-ORIGIN LEVEL: 1201133 DIFFERENT FILL-ORIGIN LEVEL: 0
L1D AVERAGE MISS LATENCY: 122.79 cycles
L1D RQ	ACCESS:    8951570	FORWARD:          0	MERGED:    3570451	TO_CACHE:    5316298
L1D WQ	ACCESS:     459661	FORWARD:      64821	MERGED:      16549	TO_CACHE:     443112
L1D PQ	ACCESS:    3630945	FORWARD:          0	MERGED:     691244	TO_CACHE:    2939701

L1D UNIQUE REGIONS ACCESSED: 0
L1D REGIONS CONFLICTS: 0
L1D Cross Page Prefetch Requests: 0
L1D Same Page Prefetch Requests: 3630945
L1D ROI Sum of L1D PQ occupancy: 41544024
L1D PREFETCHES PUSHED FROM L2C: 0
L1I TOTAL     ACCESS:    4099771  HIT:    4099771  MISS:          0  HIT %:        100  MISS %:          0   MPKI: 0
L1I LOAD      ACCESS:    4099771  HIT:    4099771  MISS:          0  HIT %:        100  MISS %:          0   MPKI: 0
L1I PREFETCH  REQUESTED:          0  ISSUED:          0  USEFUL:          0  USELESS:          0
L1I USEFUL LOAD PREFETCHES:          0 PREFETCH ISSUED TO LOWER LEVEL:          0  ACCURACY: -nan
L1I TIMELY PREFETCHES:          0 LATE PREFETCHES: 0 DROPPED PREFETCHES: 0
L1I PREFETCHES SAME FILL-ORIGIN LEVEL: 0 DIFFERENT FILL-ORIGIN LEVEL: 0
L1I AVERAGE MISS LATENCY: -nan cycles
L1I RQ	ACCESS:    5504151	FORWARD:          0	MERGED:    1404381	TO_CACHE:    4099770

BTB TOTAL     ACCESS:    7381233  HIT:    7359090  MISS:      22143  HIT %:       99.7  MISS %:   0.299991   MPKI: 0.88572
BTB BRANCH_DIRECT_JUMP	ACCESS:     954613  HIT:     954578  MISS:         35
BTB BRANCH_INDIRECT	ACCESS:          0  HIT:          0  MISS:          0
BTB BRANCH_CONDITIONAL	ACCESS:    6254608  HIT:    6254529  MISS:         79
BTB BRANCH_DIRECT_CALL	ACCESS:      79755  HIT:      79739  MISS:         16
BTB BRANCH_INDIRECT_CALL	ACCESS:       6250  HIT:       6242  MISS:          8
BTB BRANCH_RETURN	ACCESS:      86007  HIT:      64002  MISS:      22005
BTB BRANCH_OTHER ACCESS:          0  HIT:          0  MISS:          0

L2C TOTAL     ACCESS:    4268684  HIT:     503046  MISS:    3765638  HIT %:    11.7846  MISS %:    88.2154   MPKI: 150.626
L2C LOAD      ACCESS:    2950640  HIT:     383131  MISS:    2567509  HIT %:    12.9847  MISS %:    87.0153   MPKI: 102.7
L2C DATA LOAD MPKI: 102.7
L2C INSTRUCTION LOAD MPKI: 0
L2C RFO       ACCESS:       7872  HIT:        632  MISS:       7240  HIT %:    8.02846  MISS %:    91.9715   MPKI: 0.2896
L2C PREFETCH  ACCESS:    1201133  HIT:      19417  MISS:    1181716  HIT %:    1.61656  MISS %:    98.3834   MPKI: 47.2686
AGUS PREFETCH L1 MISS: 0
L2C DATA PREFETCH MPKI: 47.2686
L2C INSTRUCTION PREFETCH MPKI: 0
L2C WRITEBACK ACCESS:      79783  HIT:      79783  MISS:          0  HIT %:        100  MISS %:          0   MPKI: 0
L2C LOAD TRANSLATION ACCESS:      29256  HIT:      20083  MISS:       9173  HIT %:    68.6457  MISS %:    31.3543   MPKI: 0.36692
L2C PREFETCH  REQUESTED:          0  ISSUED:          0  USEFUL:      11773  USELESS:    1167569
L2C USEFUL LOAD PREFETCHES:      11773 PREFETCH ISSUED TO LOWER LEVEL:    1181716  ACCURACY: 0.996263
L2C TIMELY PREFETCHES:      11773 LATE PREFETCHES: 0 DROPPED PREFETCHES: 0
L2C PREFETCHES SAME FILL-ORIGIN LEVEL: 0 DIFFERENT FILL-ORIGIN LEVEL: 0
L2C AVERAGE MISS LATENCY: 118.932 cycles
L2C RQ	ACCESS:    2987772	FORWARD:          0	MERGED:          0	TO_CACHE:    2987768
L2C WQ	ACCESS:      79783	FORWARD:          4	MERGED:          0	TO_CACHE:      79783
L2C PQ	ACCESS:    1201133	FORWARD:          0	MERGED:          0	TO_CACHE:    1201133

L2C Instructions Evicting Data 0
L2C Translations Evicting Data 9156
L2C Data Evicting Data 3747324
L2C Instructions Evicting Instructions 0
L2C Translations Evicting Instructions 0
L2C Data Evicting Instructions 0
L2C Instructions Evicting Translations 0
L2C Translations Evicting Translations 17
L2C Data Evicting Translations 9141
L2C Dense regions hint from L2: 0
PSCL5 TOTAL     ACCESS:      29082  HIT:      29082  MISS:          0  HIT %:        100  MISS %:          0   MPKI: 0
PSCL5 LOAD TRANSLATION ACCESS:      29082  HIT:      29082  MISS:          0  HIT %:        100  MISS %:          0   MPKI: 0
PSCL5 PREFETCH  REQUESTED:          0  ISSUED:          0  USEFUL:          0  USELESS:          0
PSCL5 USEFUL LOAD PREFETCHES:          0 PREFETCH ISSUED TO LOWER LEVEL:          0  ACCURACY: -nan
PSCL5 TIMELY PREFETCHES:          0 LATE PREFETCHES: 0 DROPPED PREFETCHES: 0
PSCL5 PREFETCHES SAME FILL-ORIGIN LEVEL: 0 DIFFERENT FILL-ORIGIN LEVEL: 0

PSCL4 TOTAL     ACCESS:      29082  HIT:      29082  MISS:          0  HIT %:        100  MISS %:          0   MPKI: 0
PSCL4 LOAD TRANSLATION ACCESS:      29082  HIT:      29082  MISS:          0  HIT %:        100  MISS %:          0   MPKI: 0
PSCL4 PREFETCH  REQUESTED:          0  ISSUED:          0  USEFUL:          0  USELESS:          0
PSCL4 USEFUL LOAD PREFETCHES:          0 PREFETCH ISSUED TO LOWER LEVEL:          0  ACCURACY: -nan
PSCL4 TIMELY PREFETCHES:          0 LATE PREFETCHES: 0 DROPPED PREFETCHES: 0
PSCL4 PREFETCHES SAME FILL-ORIGIN LEVEL: 0 DIFFERENT FILL-ORIGIN LEVEL: 0

PSCL3 TOTAL     ACCESS:      29082  HIT:      29082  MISS:          0  HIT %:        100  MISS %:          0   MPKI: 0
PSCL3 LOAD TRANSLATION ACCESS:      29082  HIT:      29082  MISS:          0  HIT %:        100  MISS %:          0   MPKI: 0
PSCL3 PREFETCH  REQUESTED:          0  ISSUED:          0  USEFUL:          0  USELESS:          0
PSCL3 USEFUL LOAD PREFETCHES:          0 PREFETCH ISSUED TO LOWER LEVEL:          0  ACCURACY: -nan
PSCL3 TIMELY PREFETCHES:          0 LATE PREFETCHES: 0 DROPPED PREFETCHES: 0
PSCL3 PREFETCHES SAME FILL-ORIGIN LEVEL: 0 DIFFERENT FILL-ORIGIN LEVEL: 0

PSCL2 TOTAL     ACCESS:      29082  HIT:      28772  MISS:        310  HIT %:     98.934  MISS %:    1.06595   MPKI: 0.0124
PSCL2 LOAD TRANSLATION ACCESS:      29082  HIT:      28772  MISS:        310  HIT %:     98.934  MISS %:    1.06595   MPKI: 0.0124
PSCL2 PREFETCH  REQUESTED:          0  ISSUED:          0  USEFUL:          0  USELESS:          0
PSCL2 USEFUL LOAD PREFETCHES:          0 PREFETCH ISSUED TO LOWER LEVEL:          0  ACCURACY: -nan
PSCL2 TIMELY PREFETCHES:          0 LATE PREFETCHES: 0 DROPPED PREFETCHES: 0
PSCL2 PREFETCHES SAME FILL-ORIGIN LEVEL: 0 DIFFERENT FILL-ORIGIN LEVEL: 0

LLC TOTAL     ACCESS:    3841964  HIT:    1654291  MISS:    2187673  HIT %:    43.0585  MISS %:    56.9415   MPKI: 87.5069
LLC LOAD      ACCESS:    2567509  HIT:    1496268  MISS:    1071241  HIT %:     58.277  MISS %:     41.723   MPKI: 42.8496
LLC RFO       ACCESS:       7240  HIT:       6046  MISS:       1194  HIT %:    83.5083  MISS %:    16.4917   MPKI: 0.04776
LLC PREFETCH  ACCESS:    1181716  HIT:      71824  MISS:    1109892  HIT %:    6.07794  MISS %:    93.9221   MPKI: 44.3957
AGUS PREFETCH L1 MISS: 0
LLC WRITEBACK ACCESS:      76326  HIT:      76235  MISS:         91  HIT %:    99.8808  MISS %:   0.119225   MPKI: 0.00364
LLC LOAD TRANSLATION ACCESS:       9173  HIT:       3918  MISS:       5255  HIT %:    42.7123  MISS %:    57.2877   MPKI: 0.2102
LLC PREFETCH  REQUESTED:          0  ISSUED:          0  USEFUL:      16035  USELESS:    1080506
LLC USEFUL LOAD PREFETCHES:      16035 PREFETCH ISSUED TO LOWER LEVEL:    1109892  ACCURACY: 1.44474
LLC TIMELY PREFETCHES:      16035 LATE PREFETCHES: 0 DROPPED PREFETCHES: 0
LLC PREFETCHES SAME FILL-ORIGIN LEVEL: 0 DIFFERENT FILL-ORIGIN LEVEL: 0
LLC AVERAGE MISS LATENCY: 152.417 cycles
LLC RQ	ACCESS:    2583922	FORWARD:          0	MERGED:          0	TO_CACHE:    2583922
LLC WQ	ACCESS:      76326	FORWARD:          0	MERGED:          0	TO_CACHE:      76326
LLC PQ	ACCESS:    1181716	FORWARD:          0	MERGED:          0	TO_CACHE:    1181716

LLC Dense regions hint to LLC: 0

RAW hits: 62757
Loads Generated: 9014327
Loads sent to L1D: 8951570
Stores Generated: 459660
Stores sent to L1D: 459661
Major fault: 0 Minor fault: 44120
Allocated PAGES: 44120
CPU 0 L1D optimized prefetcher final stats
Degree: 5

DRAM Statistics
 CHANNEL 0
 RQ ROW_BUFFER_HIT:     837470  ROW_BUFFER_MISS:    1350089
 DBUS_CONGESTED:        276
 WQ ROW_BUFFER_HIT:       9767  ROW_BUFFER_MISS:      30333  FULL:          0

 AVG_CONGESTED_CYCLE: 4
 All warmup complete: 2
Channel 0 Bank busy for read cycles: 0
Channel 0 Bank busy for write cycles: 0
Channel 0
Rank 0
0banks busy for read cycles: 54810188
0banks busy for write cycles: 14726
1banks busy for read cycles: 39007856
1banks busy for write cycles: 2756609
2banks busy for read cycles: 19885667
2banks busy for write cycles: 578379
3banks busy for read cycles: 12604140
3banks busy for write cycles: 246520
4banks busy for read cycles: 9146002
4banks busy for write cycles: 149618
5banks busy for read cycles: 6574376
5banks busy for write cycles: 119557
6banks busy for read cycles: 4404239
6banks busy for write cycles: 113564
7banks busy for read cycles: 2524302
7banks busy for write cycles: 127507
8banks busy for read cycles: 1783710
8banks busy for write cycles: 216674

CPU 0 Branch Prediction Accuracy: 96.3142% MPKI: 11.2642 Average ROB Occupancy at Mispredict: 46.5486
Branch types
NOT_BRANCH: 17359361 69.4374%
BRANCH_DIRECT_JUMP: 954613 3.81845%
BRANCH_INDIRECT: 0 0%
BRANCH_CONDITIONAL: 6513665 26.0547%
BRANCH_DIRECT_CALL: 79755 0.31902%
BRANCH_INDIRECT_CALL: 6250 0.025%
BRANCH_RETURN: 86007 0.344028%
BRANCH_OTHER: 0 0%

DRAM PAGES: 1048576
Allocated PAGES: 44120
