
*** ChampSim Multicore Out-of-Order Simulator ***

Warmup Instructions: 25000000
Simulation Instructions: 25000000
Number of CPUs: 1
LLC sets: 2048
LLC ways: 16
Off-chip DRAM Size: 4096 MB Channels: 1 Width: 64-bit Data Rate: 6400 MT/s
CPU 0 runs /home/yashas/CS683/pa2-lehra-do-prefetcher-wronganswersonly/traces/trace2.champsimtrace.xz
.xz
CPU 0 Bimodal branch predictor
BTB has LRU replacement policy
ITLB has LRU replacement policy
DTLB has LRU replacement policy
STLB has LRU replacement policy
L1I has LRU replacement policy
CPU 0 L1D Complex-Stride prefetcher
L1D has LRU replacement policy
L2C has LRU replacement policy
LLC has LRU replacement policy
Heartbeat CPU 0 instructions: 10000002 cycles: 3795855 heartbeat IPC: 2.63445 cumulative IPC: 2.63445 (Simulation time: 0 hr 0 min 20 sec) 
Heartbeat CPU 0 instructions: 20000001 cycles: 7593562 heartbeat IPC: 2.63317 cumulative IPC: 2.63381 (Simulation time: 0 hr 0 min 39 sec) 

Warmup complete CPU 0 instructions: 25000001 cycles: 9492048 (Simulation time: 0 hr 0 min 48 sec) 

Heartbeat CPU 0 instructions: 30000001 cycles: 59656761 heartbeat IPC: 0.192074 cumulative IPC: 0.0996717 (Simulation time: 0 hr 1 min 21 sec) 
Heartbeat CPU 0 instructions: 40000002 cycles: 159680876 heartbeat IPC: 0.0999759 cumulative IPC: 0.0998743 (Simulation time: 0 hr 2 min 27 sec) 
Heartbeat CPU 0 instructions: 50000000 cycles: 257316049 heartbeat IPC: 0.102422 cumulative IPC: 0.100878 (Simulation time: 0 hr 3 min 32 sec) 
Finished CPU 0 instructions: 25000000 cycles: 247824023 cumulative IPC: 0.100878 (Simulation time: 0 hr 3 min 32 sec) 

ChampSim completed all CPUs

Region of Interest Statistics

CPU 0 cumulative IPC: 0.100878 instructions: 25000000 cycles: 247824023
ITLB TOTAL     ACCESS:    5731598  HIT:    5731598  MISS:          0  HIT %:        100  MISS %:          0   MPKI: 0
ITLB LOAD TRANSLATION ACCESS:    5731598  HIT:    5731598  MISS:          0  HIT %:        100  MISS %:          0   MPKI: 0
ITLB PREFETCH  REQUESTED:          0  ISSUED:          0  USEFUL:          0  USELESS:          0
ITLB USEFUL LOAD PREFETCHES:          0 PREFETCH ISSUED TO LOWER LEVEL:          0  ACCURACY: -nan
ITLB TIMELY PREFETCHES:          0 LATE PREFETCHES: 0 DROPPED PREFETCHES: 0
ITLB PREFETCHES SAME FILL-ORIGIN LEVEL: 0 DIFFERENT FILL-ORIGIN LEVEL: 0
ITLB AVERAGE MISS LATENCY: -nan cycles
ITLB RQ	ACCESS:    5817031	FORWARD:          0	MERGED:      85433	TO_CACHE:    5731598

DTLB TOTAL     ACCESS:    3871396  HIT:    3837383  MISS:      34013  HIT %:    99.1214  MISS %:   0.878572   MPKI: 1.36052
DTLB LOAD TRANSLATION ACCESS:    3871396  HIT:    3837383  MISS:      34013  HIT %:    99.1214  MISS %:   0.878572   MPKI: 1.36052
DTLB PREFETCH  REQUESTED:          0  ISSUED:          0  USEFUL:          0  USELESS:          0
DTLB USEFUL LOAD PREFETCHES:          0 PREFETCH ISSUED TO LOWER LEVEL:          0  ACCURACY: -nan
DTLB TIMELY PREFETCHES:          0 LATE PREFETCHES: 0 DROPPED PREFETCHES: 0
DTLB PREFETCHES SAME FILL-ORIGIN LEVEL: 0 DIFFERENT FILL-ORIGIN LEVEL: 0
DTLB AVERAGE MISS LATENCY: 106.337 cycles
DTLB RQ	ACCESS:    4554238	FORWARD:          0	MERGED:     682721	TO_CACHE:    3871517

STLB TOTAL     ACCESS:     164740  HIT:     132044  MISS:      32696  HIT %:     80.153  MISS %:     19.847   MPKI: 1.30784
STLB LOAD TRANSLATION ACCESS:      34013  HIT:       1322  MISS:      32691  HIT %:    3.88675  MISS %:    96.1133   MPKI: 1.30764
STLB TRANSLATION FROM L1D PREFETCHER ACCESS:     130727  HIT:     130722  MISS:          5  HIT %:    99.9962  MISS %: 0.00382476   MPKI: 0.0002
STLB PREFETCH  REQUESTED:          0  ISSUED:          0  USEFUL:          5  USELESS:          0
STLB USEFUL LOAD PREFETCHES:          5 PREFETCH ISSUED TO LOWER LEVEL:          0  ACCURACY: inf
STLB TIMELY PREFETCHES:          5 LATE PREFETCHES: 0 DROPPED PREFETCHES: 0
STLB PREFETCHES SAME FILL-ORIGIN LEVEL: 0 DIFFERENT FILL-ORIGIN LEVEL: 0
STLB AVERAGE MISS LATENCY: 101.285 cycles
STLB RQ	ACCESS:     291410	FORWARD:          0	MERGED:     126670	TO_CACHE:     164740

STLB Hit, L1D data hit: 0
STLB Hit, L2C data hit: 0
STLB Hit, LLC data hit: 0
STLB Hit, LLC data miss: 0
STLB STLB hints to L2: 0
L1D TOTAL     ACCESS:    4073819  HIT:    2323757  MISS:    1750062  HIT %:    57.0412  MISS %:    42.9588   MPKI: 70.0025
L1D LOAD      ACCESS:    3611207  HIT:    1913581  MISS:    1697626  HIT %:    52.9901  MISS %:    47.0099   MPKI: 67.905
L1D RFO       ACCESS:     333999  HIT:     333280  MISS:        719  HIT %:    99.7847  MISS %:    0.21527   MPKI: 0.02876
L1D PREFETCH  ACCESS:     128613  HIT:      76896  MISS:      51717  HIT %:    59.7887  MISS %:    40.2113   MPKI: 2.06868
AGUS PREFETCH L1 MISS: 0
L1D PREFETCH  REQUESTED:     562509  ISSUED:     562509  USEFUL:      51486  USELESS:        229
L1D USEFUL LOAD PREFETCHES:      51486 PREFETCH ISSUED TO LOWER LEVEL:      79723  ACCURACY: 64.5811
L1D TIMELY PREFETCHES:      51486 LATE PREFETCHES: 28006 DROPPED PREFETCHES: 0
L1D PREFETCHES SAME FILL-ORIGIN LEVEL: 79723 DIFFERENT FILL-ORIGIN LEVEL: 0
L1D AVERAGE MISS LATENCY: 120.663 cycles
L1D RQ	ACCESS:    8972562	FORWARD:          0	MERGED:    4750937	TO_CACHE:    4220235
L1D WQ	ACCESS:     370377	FORWARD:       1390	MERGED:      36374	TO_CACHE:     334003
L1D PQ	ACCESS:     305112	FORWARD:          0	MERGED:      47715	TO_CACHE:     257397

L1D UNIQUE REGIONS ACCESSED: 0
L1D REGIONS CONFLICTS: 0
L1D Cross Page Prefetch Requests: 0
L1D Same Page Prefetch Requests: 581726
L1D ROI Sum of L1D PQ occupancy: 3431412
L1D PREFETCHES PUSHED FROM L2C: 0
L1I TOTAL     ACCESS:    5817030  HIT:    5817030  MISS:          0  HIT %:        100  MISS %:          0   MPKI: 0
L1I LOAD      ACCESS:    5817030  HIT:    5817030  MISS:          0  HIT %:        100  MISS %:          0   MPKI: 0
L1I PREFETCH  REQUESTED:          0  ISSUED:          0  USEFUL:          0  USELESS:          0
L1I USEFUL LOAD PREFETCHES:          0 PREFETCH ISSUED TO LOWER LEVEL:          0  ACCURACY: -nan
L1I TIMELY PREFETCHES:          0 LATE PREFETCHES: 0 DROPPED PREFETCHES: 0
L1I PREFETCHES SAME FILL-ORIGIN LEVEL: 0 DIFFERENT FILL-ORIGIN LEVEL: 0
L1I AVERAGE MISS LATENCY: -nan cycles
L1I RQ	ACCESS:    8451806	FORWARD:          0	MERGED:    2634775	TO_CACHE:    5817031

BTB TOTAL     ACCESS:    5953193  HIT:    5953095  MISS:         98  HIT %:    99.9984  MISS %: 0.00164618   MPKI: 0.00392
BTB BRANCH_DIRECT_JUMP	ACCESS:      85874  HIT:      85848  MISS:         26
BTB BRANCH_INDIRECT	ACCESS:          0  HIT:          0  MISS:          0
BTB BRANCH_CONDITIONAL	ACCESS:    5783213  HIT:    5783164  MISS:         49
BTB BRANCH_DIRECT_CALL	ACCESS:      42053  HIT:      42043  MISS:         10
BTB BRANCH_INDIRECT_CALL	ACCESS:          0  HIT:          0  MISS:          0
BTB BRANCH_RETURN	ACCESS:      42053  HIT:      42040  MISS:         13
BTB BRANCH_OTHER ACCESS:          0  HIT:          0  MISS:          0

L2C TOTAL     ACCESS:    1786179  HIT:      29605  MISS:    1756574  HIT %:    1.65745  MISS %:    98.3426   MPKI: 70.263
L2C LOAD      ACCESS:    1669620  HIT:        839  MISS:    1668781  HIT %:   0.050251  MISS %:    99.9497   MPKI: 66.7512
L2C DATA LOAD MPKI: 66.7512
L2C INSTRUCTION LOAD MPKI: 0
L2C RFO       ACCESS:        719  HIT:          0  MISS:        719  HIT %:          0  MISS %:        100   MPKI: 0.02876
L2C PREFETCH  ACCESS:      79723  HIT:        151  MISS:      79572  HIT %:   0.189406  MISS %:    99.8106   MPKI: 3.18288
AGUS PREFETCH L1 MISS: 0
L2C DATA PREFETCH MPKI: 3.18288
L2C INSTRUCTION PREFETCH MPKI: 0
L2C WRITEBACK ACCESS:       2773  HIT:       2765  MISS:          8  HIT %:    99.7115  MISS %:   0.288496   MPKI: 0.00032
L2C LOAD TRANSLATION ACCESS:      33338  HIT:      25850  MISS:       7488  HIT %:    77.5391  MISS %:    22.4609   MPKI: 0.29952
L2C TRANSLATION FROM L1D PREFETCHER ACCESS:          6  HIT:          0  MISS:          6  HIT %:          0  MISS %:        100   MPKI: 0.00024
L2C PREFETCH  REQUESTED:          0  ISSUED:          0  USEFUL:          3  USELESS:      79409
L2C USEFUL LOAD PREFETCHES:          3 PREFETCH ISSUED TO LOWER LEVEL:      79572  ACCURACY: 0.00377017
L2C TIMELY PREFETCHES:          3 LATE PREFETCHES: 0 DROPPED PREFETCHES: 0
L2C PREFETCHES SAME FILL-ORIGIN LEVEL: 0 DIFFERENT FILL-ORIGIN LEVEL: 0
L2C AVERAGE MISS LATENCY: 106.045 cycles
L2C RQ	ACCESS:    1703682	FORWARD:          0	MERGED:          0	TO_CACHE:    1703682
L2C WQ	ACCESS:       2773	FORWARD:          0	MERGED:          0	TO_CACHE:       2773
L2C PQ	ACCESS:      79723	FORWARD:          0	MERGED:          0	TO_CACHE:      79723

L2C Instructions Evicting Data 0
L2C Translations Evicting Data 7468
L2C Data Evicting Data 1741618
L2C Instructions Evicting Instructions 0
L2C Translations Evicting Instructions 0
L2C Data Evicting Instructions 0
L2C Instructions Evicting Translations 0
L2C Translations Evicting Translations 26
L2C Data Evicting Translations 7454
L2C Dense regions hint from L2: 0
PSCL5 TOTAL     ACCESS:      32696  HIT:      32696  MISS:          0  HIT %:        100  MISS %:          0   MPKI: 0
PSCL5 LOAD TRANSLATION ACCESS:      32691  HIT:      32691  MISS:          0  HIT %:        100  MISS %:          0   MPKI: 0
PSCL5 TRANSLATION FROM L1D PREFETCHER ACCESS:          5  HIT:          5  MISS:          0  HIT %:        100  MISS %:          0   MPKI: 0
PSCL5 PREFETCH  REQUESTED:          0  ISSUED:          0  USEFUL:          0  USELESS:          0
PSCL5 USEFUL LOAD PREFETCHES:          0 PREFETCH ISSUED TO LOWER LEVEL:          0  ACCURACY: -nan
PSCL5 TIMELY PREFETCHES:          0 LATE PREFETCHES: 0 DROPPED PREFETCHES: 0
PSCL5 PREFETCHES SAME FILL-ORIGIN LEVEL: 0 DIFFERENT FILL-ORIGIN LEVEL: 0

PSCL4 TOTAL     ACCESS:      32696  HIT:      32696  MISS:          0  HIT %:        100  MISS %:          0   MPKI: 0
PSCL4 LOAD TRANSLATION ACCESS:      32691  HIT:      32691  MISS:          0  HIT %:        100  MISS %:          0   MPKI: 0
PSCL4 TRANSLATION FROM L1D PREFETCHER ACCESS:          5  HIT:          5  MISS:          0  HIT %:        100  MISS %:          0   MPKI: 0
PSCL4 PREFETCH  REQUESTED:          0  ISSUED:          0  USEFUL:          0  USELESS:          0
PSCL4 USEFUL LOAD PREFETCHES:          0 PREFETCH ISSUED TO LOWER LEVEL:          0  ACCURACY: -nan
PSCL4 TIMELY PREFETCHES:          0 LATE PREFETCHES: 0 DROPPED PREFETCHES: 0
PSCL4 PREFETCHES SAME FILL-ORIGIN LEVEL: 0 DIFFERENT FILL-ORIGIN LEVEL: 0

PSCL3 TOTAL     ACCESS:      32696  HIT:      32693  MISS:          3  HIT %:    99.9908  MISS %: 0.00917543   MPKI: 0.00012
PSCL3 LOAD TRANSLATION ACCESS:      32691  HIT:      32688  MISS:          3  HIT %:    99.9908  MISS %: 0.00917684   MPKI: 0.00012
PSCL3 TRANSLATION FROM L1D PREFETCHER ACCESS:          5  HIT:          5  MISS:          0  HIT %:        100  MISS %:          0   MPKI: 0
PSCL3 PREFETCH  REQUESTED:          0  ISSUED:          0  USEFUL:          0  USELESS:          0
PSCL3 USEFUL LOAD PREFETCHES:          0 PREFETCH ISSUED TO LOWER LEVEL:          0  ACCURACY: -nan
PSCL3 TIMELY PREFETCHES:          0 LATE PREFETCHES: 0 DROPPED PREFETCHES: 0
PSCL3 PREFETCHES SAME FILL-ORIGIN LEVEL: 0 DIFFERENT FILL-ORIGIN LEVEL: 0

PSCL2 TOTAL     ACCESS:      32696  HIT:      31953  MISS:        743  HIT %:    97.7276  MISS %:    2.27245   MPKI: 0.02972
PSCL2 LOAD TRANSLATION ACCESS:      32692  HIT:      31949  MISS:        743  HIT %:    97.7273  MISS %:    2.27273   MPKI: 0.02972
PSCL2 TRANSLATION FROM L1D PREFETCHER ACCESS:          4  HIT:          4  MISS:          0  HIT %:        100  MISS %:          0   MPKI: 0
PSCL2 PREFETCH  REQUESTED:          0  ISSUED:          0  USEFUL:          0  USELESS:          0
PSCL2 USEFUL LOAD PREFETCHES:          0 PREFETCH ISSUED TO LOWER LEVEL:          0  ACCURACY: -nan
PSCL2 TIMELY PREFETCHES:          0 LATE PREFETCHES: 0 DROPPED PREFETCHES: 0
PSCL2 PREFETCHES SAME FILL-ORIGIN LEVEL: 0 DIFFERENT FILL-ORIGIN LEVEL: 0

LLC TOTAL     ACCESS:    1759335  HIT:       3151  MISS:    1756184  HIT %:   0.179102  MISS %:    99.8209   MPKI: 70.2474
LLC LOAD      ACCESS:    1668781  HIT:         51  MISS:    1668730  HIT %: 0.00305612  MISS %:    99.9969   MPKI: 66.7492
LLC RFO       ACCESS:        719  HIT:          0  MISS:        719  HIT %:          0  MISS %:        100   MPKI: 0.02876
LLC PREFETCH  ACCESS:      79572  HIT:         15  MISS:      79557  HIT %:  0.0188509  MISS %:    99.9811   MPKI: 3.18228
AGUS PREFETCH L1 MISS: 0
LLC WRITEBACK ACCESS:       2769  HIT:       2761  MISS:          8  HIT %:    99.7111  MISS %:   0.288913   MPKI: 0.00032
LLC LOAD TRANSLATION ACCESS:       7488  HIT:        324  MISS:       7164  HIT %:    4.32692  MISS %:    95.6731   MPKI: 0.28656
LLC TRANSLATION FROM L1D PREFETCHER ACCESS:          6  HIT:          0  MISS:          6  HIT %:          0  MISS %:        100   MPKI: 0.00024
LLC PREFETCH  REQUESTED:          0  ISSUED:          0  USEFUL:          0  USELESS:      77677
LLC USEFUL LOAD PREFETCHES:          0 PREFETCH ISSUED TO LOWER LEVEL:      79557  ACCURACY: 0
LLC TIMELY PREFETCHES:          0 LATE PREFETCHES: 0 DROPPED PREFETCHES: 0
LLC PREFETCHES SAME FILL-ORIGIN LEVEL: 0 DIFFERENT FILL-ORIGIN LEVEL: 0
LLC AVERAGE MISS LATENCY: 76.0566 cycles
LLC RQ	ACCESS:    1676993	FORWARD:          0	MERGED:          0	TO_CACHE:    1676993
LLC WQ	ACCESS:       2769	FORWARD:          0	MERGED:          0	TO_CACHE:       2769
LLC PQ	ACCESS:      79572	FORWARD:          0	MERGED:          0	TO_CACHE:      79572

LLC Dense regions hint to LLC: 0

RAW hits: 4399
Loads Generated: 8976961
Loads sent to L1D: 8972562
Stores Generated: 370377
Stores sent to L1D: 370377
Major fault: 0 Minor fault: 48857
Allocated PAGES: 48857
CPU 0 L1D complex stride prefetcher final stats
Degree: 5

DRAM Statistics
 CHANNEL 0
 RQ ROW_BUFFER_HIT:    1652227  ROW_BUFFER_MISS:     103948
 DBUS_CONGESTED:         11
 WQ ROW_BUFFER_HIT:       1755  ROW_BUFFER_MISS:       1009  FULL:          0

 AVG_CONGESTED_CYCLE: 4
 All warmup complete: 2
Channel 0 Bank busy for read cycles: 0
Channel 0 Bank busy for write cycles: 0
Channel 0
Rank 0
0banks busy for read cycles: 151381043
0banks busy for write cycles: 1544
1banks busy for read cycles: 91127432
1banks busy for write cycles: 1309893
2banks busy for read cycles: 2774524
2banks busy for write cycles: 477744
3banks busy for read cycles: 347780
3banks busy for write cycles: 190694
4banks busy for read cycles: 98196
4banks busy for write cycles: 69673
5banks busy for read cycles: 15604
5banks busy for write cycles: 22964
6banks busy for read cycles: 1992
6banks busy for write cycles: 4566
7banks busy for read cycles: 120
7banks busy for write cycles: 230
8banks busy for read cycles: 25
8banks busy for write cycles: 0

CPU 0 Branch Prediction Accuracy: 99.1323% MPKI: 3.09396 Average ROB Occupancy at Mispredict: 122.621
Branch types
NOT_BRANCH: 16085561 64.3422%
BRANCH_DIRECT_JUMP: 85874 0.343496%
BRANCH_INDIRECT: 0 0%
BRANCH_CONDITIONAL: 8744101 34.9764%
BRANCH_DIRECT_CALL: 42053 0.168212%
BRANCH_INDIRECT_CALL: 0 0%
BRANCH_RETURN: 42053 0.168212%
BRANCH_OTHER: 0 0%

DRAM PAGES: 1048576
Allocated PAGES: 48857
