
*** ChampSim Multicore Out-of-Order Simulator ***

Warmup Instructions: 25000000
Simulation Instructions: 25000000
Number of CPUs: 1
LLC sets: 2048
LLC ways: 16
Off-chip DRAM Size: 4096 MB Channels: 1 Width: 64-bit Data Rate: 6400 MT/s
CPU 0 runs /home/yashas/CS683/pa2-lehra-do-prefetcher-wronganswersonly/traces/trace2.champsimtrace.xz
.xz
CPU 0 Bimodal branch predictor
BTB has LRU replacement policy
ITLB has LRU replacement policy
DTLB has LRU replacement policy
STLB has LRU replacement policy
L1I has LRU replacement policy
CPU 0 L1D Complex-Stride prefetcher
L1D has LRU replacement policy
L2C has LRU replacement policy
LLC has LRU replacement policy
Heartbeat CPU 0 instructions: 10000002 cycles: 3742928 heartbeat IPC: 2.67171 cumulative IPC: 2.67171 (Simulation time: 0 hr 0 min 18 sec) 
Heartbeat CPU 0 instructions: 20000001 cycles: 7487655 heartbeat IPC: 2.67042 cumulative IPC: 2.67106 (Simulation time: 0 hr 0 min 36 sec) 

Warmup complete CPU 0 instructions: 25000001 cycles: 9359286 (Simulation time: 0 hr 0 min 45 sec) 

Heartbeat CPU 0 instructions: 30000001 cycles: 35934476 heartbeat IPC: 0.351533 cumulative IPC: 0.188145 (Simulation time: 0 hr 1 min 7 sec) 
Heartbeat CPU 0 instructions: 40000002 cycles: 88622716 heartbeat IPC: 0.189796 cumulative IPC: 0.189242 (Simulation time: 0 hr 1 min 50 sec) 
Heartbeat CPU 0 instructions: 50000000 cycles: 139640498 heartbeat IPC: 0.19601 cumulative IPC: 0.191893 (Simulation time: 0 hr 2 min 33 sec) 
Finished CPU 0 instructions: 25000000 cycles: 130281234 cumulative IPC: 0.191893 (Simulation time: 0 hr 2 min 33 sec) 

ChampSim completed all CPUs

Region of Interest Statistics

CPU 0 cumulative IPC: 0.191893 instructions: 25000000 cycles: 130281234
ITLB TOTAL     ACCESS:    5025295  HIT:    5025295  MISS:          0  HIT %:        100  MISS %:          0   MPKI: 0
ITLB LOAD TRANSLATION ACCESS:    5025295  HIT:    5025295  MISS:          0  HIT %:        100  MISS %:          0   MPKI: 0
ITLB PREFETCH  REQUESTED:          0  ISSUED:          0  USEFUL:          0  USELESS:          0
ITLB USEFUL LOAD PREFETCHES:          0 PREFETCH ISSUED TO LOWER LEVEL:          0  ACCURACY: -nan
ITLB TIMELY PREFETCHES:          0 LATE PREFETCHES: 0 DROPPED PREFETCHES: 0
ITLB PREFETCHES SAME FILL-ORIGIN LEVEL: 0 DIFFERENT FILL-ORIGIN LEVEL: 0
ITLB AVERAGE MISS LATENCY: -nan cycles
ITLB RQ	ACCESS:    5110726	FORWARD:          0	MERGED:      85432	TO_CACHE:    5025294

DTLB TOTAL     ACCESS:    3869842  HIT:    3835829  MISS:      34013  HIT %:    99.1211  MISS %:   0.878925   MPKI: 1.36052
DTLB LOAD TRANSLATION ACCESS:    3869842  HIT:    3835829  MISS:      34013  HIT %:    99.1211  MISS %:   0.878925   MPKI: 1.36052
DTLB PREFETCH  REQUESTED:          0  ISSUED:          0  USEFUL:          0  USELESS:          0
DTLB USEFUL LOAD PREFETCHES:          0 PREFETCH ISSUED TO LOWER LEVEL:          0  ACCURACY: -nan
DTLB TIMELY PREFETCHES:          0 LATE PREFETCHES: 0 DROPPED PREFETCHES: 0
DTLB PREFETCHES SAME FILL-ORIGIN LEVEL: 0 DIFFERENT FILL-ORIGIN LEVEL: 0
DTLB AVERAGE MISS LATENCY: 106.187 cycles
DTLB RQ	ACCESS:    4554037	FORWARD:          0	MERGED:     684080	TO_CACHE:    3869957

STLB TOTAL     ACCESS:    1916077  HIT:    1883415  MISS:      32662  HIT %:    98.2954  MISS %:    1.70463   MPKI: 1.30648
STLB LOAD TRANSLATION ACCESS:      34013  HIT:       1352  MISS:      32661  HIT %:    3.97495  MISS %:     96.025   MPKI: 1.30644
STLB TRANSLATION FROM L1D PREFETCHER ACCESS:    1882064  HIT:    1882063  MISS:          1  HIT %:    99.9999  MISS %: 5.31332e-05   MPKI: 4e-05
STLB PREFETCH  REQUESTED:          0  ISSUED:          0  USEFUL:          1  USELESS:          0
STLB USEFUL LOAD PREFETCHES:          1 PREFETCH ISSUED TO LOWER LEVEL:          0  ACCURACY: inf
STLB TIMELY PREFETCHES:          1 LATE PREFETCHES: 0 DROPPED PREFETCHES: 0
STLB PREFETCHES SAME FILL-ORIGIN LEVEL: 0 DIFFERENT FILL-ORIGIN LEVEL: 0
STLB AVERAGE MISS LATENCY: 101.195 cycles
STLB RQ	ACCESS:    4199565	FORWARD:          0	MERGED:    2283488	TO_CACHE:    1916077

STLB Hit, L1D data hit: 0
STLB Hit, L2C data hit: 0
STLB Hit, LLC data hit: 0
STLB Hit, LLC data miss: 0
STLB STLB hints to L2: 0
L1D TOTAL     ACCESS:    6429621  HIT:    4648006  MISS:    1781615  HIT %:    72.2905  MISS %:    27.7095   MPKI: 71.2646
L1D LOAD      ACCESS:    3959485  HIT:    3125200  MISS:     834285  HIT %:    78.9295  MISS %:    21.0705   MPKI: 33.3714
L1D RFO       ACCESS:     333857  HIT:     333152  MISS:        705  HIT %:    99.7888  MISS %:   0.211168   MPKI: 0.0282
L1D PREFETCH  ACCESS:    2136279  HIT:    1189654  MISS:     946625  HIT %:    55.6881  MISS %:    44.3119   MPKI: 37.865
AGUS PREFETCH L1 MISS: 0
L1D PREFETCH  REQUESTED:    8851841  ISSUED:    8851841  USEFUL:     915299  USELESS:      31337
L1D USEFUL LOAD PREFETCHES:     915299 PREFETCH ISSUED TO LOWER LEVEL:    1333100  ACCURACY: 68.6594
L1D TIMELY PREFETCHES:     915299 LATE PREFETCHES: 386474 DROPPED PREFETCHES: 0
L1D PREFETCHES SAME FILL-ORIGIN LEVEL: 1333100 DIFFERENT FILL-ORIGIN LEVEL: 0
L1D AVERAGE MISS LATENCY: 119.95 cycles
L1D RQ	ACCESS:    8972641	FORWARD:          0	MERGED:    4751037	TO_CACHE:    4220176
L1D WQ	ACCESS:     370377	FORWARD:       1428	MERGED:      36516	TO_CACHE:     333861
L1D PQ	ACCESS:    4686289	FORWARD:          0	MERGED:     520737	TO_CACHE:    4165552

L1D UNIQUE REGIONS ACCESSED: 0
L1D REGIONS CONFLICTS: 0
L1D Cross Page Prefetch Requests: 0
L1D Same Page Prefetch Requests: 15059134
L1D ROI Sum of L1D PQ occupancy: 54291983
L1D PREFETCHES PUSHED FROM L2C: 0
L1I TOTAL     ACCESS:    5110726  HIT:    5110726  MISS:          0  HIT %:        100  MISS %:          0   MPKI: 0
L1I LOAD      ACCESS:    5110726  HIT:    5110726  MISS:          0  HIT %:        100  MISS %:          0   MPKI: 0
L1I PREFETCH  REQUESTED:          0  ISSUED:          0  USEFUL:          0  USELESS:          0
L1I USEFUL LOAD PREFETCHES:          0 PREFETCH ISSUED TO LOWER LEVEL:          0  ACCURACY: -nan
L1I TIMELY PREFETCHES:          0 LATE PREFETCHES: 0 DROPPED PREFETCHES: 0
L1I PREFETCHES SAME FILL-ORIGIN LEVEL: 0 DIFFERENT FILL-ORIGIN LEVEL: 0
L1I AVERAGE MISS LATENCY: -nan cycles
L1I RQ	ACCESS:    7617901	FORWARD:          0	MERGED:    2507175	TO_CACHE:    5110726

BTB TOTAL     ACCESS:    5953193  HIT:    5953095  MISS:         98  HIT %:    99.9984  MISS %: 0.00164618   MPKI: 0.00392
BTB BRANCH_DIRECT_JUMP	ACCESS:      85874  HIT:      85848  MISS:         26
BTB BRANCH_INDIRECT	ACCESS:          0  HIT:          0  MISS:          0
BTB BRANCH_CONDITIONAL	ACCESS:    5783213  HIT:    5783164  MISS:         49
BTB BRANCH_DIRECT_CALL	ACCESS:      42053  HIT:      42043  MISS:         10
BTB BRANCH_INDIRECT_CALL	ACCESS:          0  HIT:          0  MISS:          0
BTB BRANCH_RETURN	ACCESS:      42053  HIT:      42040  MISS:         13
BTB BRANCH_OTHER ACCESS:          0  HIT:          0  MISS:          0

L2C TOTAL     ACCESS:    1817681  HIT:      51343  MISS:    1766338  HIT %:    2.82464  MISS %:    97.1754   MPKI: 70.6535
L2C LOAD      ACCESS:     447809  HIT:       1273  MISS:     446536  HIT %:   0.284273  MISS %:    99.7157   MPKI: 17.8614
L2C DATA LOAD MPKI: 17.8614
L2C INSTRUCTION LOAD MPKI: 0
L2C RFO       ACCESS:        704  HIT:         11  MISS:        693  HIT %:     1.5625  MISS %:    98.4375   MPKI: 0.02772
L2C PREFETCH  ACCESS:    1333100  HIT:      21445  MISS:    1311655  HIT %:    1.60866  MISS %:    98.3913   MPKI: 52.4662
AGUS PREFETCH L1 MISS: 0
L2C DATA PREFETCH MPKI: 52.4662
L2C INSTRUCTION PREFETCH MPKI: 0
L2C WRITEBACK ACCESS:       2783  HIT:       2771  MISS:         12  HIT %:    99.5688  MISS %:   0.431189   MPKI: 0.00048
L2C LOAD TRANSLATION ACCESS:      33284  HIT:      25842  MISS:       7442  HIT %:    77.6409  MISS %:    22.3591   MPKI: 0.29768
L2C TRANSLATION FROM L1D PREFETCHER ACCESS:          1  HIT:          1  MISS:          0  HIT %:        100  MISS %:          0   MPKI: 0
L2C PREFETCH  REQUESTED:          0  ISSUED:          0  USEFUL:        495  USELESS:    1311893
L2C USEFUL LOAD PREFETCHES:        495 PREFETCH ISSUED TO LOWER LEVEL:    1311655  ACCURACY: 0.0377386
L2C TIMELY PREFETCHES:        495 LATE PREFETCHES: 0 DROPPED PREFETCHES: 0
L2C PREFETCHES SAME FILL-ORIGIN LEVEL: 0 DIFFERENT FILL-ORIGIN LEVEL: 0
L2C AVERAGE MISS LATENCY: 106.527 cycles
L2C RQ	ACCESS:     481800	FORWARD:          0	MERGED:          0	TO_CACHE:     481798
L2C WQ	ACCESS:       2783	FORWARD:          2	MERGED:          0	TO_CACHE:       2783
L2C PQ	ACCESS:    1333100	FORWARD:          0	MERGED:          0	TO_CACHE:    1333100

L2C Instructions Evicting Data 0
L2C Translations Evicting Data 7417
L2C Data Evicting Data 1751480
L2C Instructions Evicting Instructions 0
L2C Translations Evicting Instructions 0
L2C Data Evicting Instructions 0
L2C Instructions Evicting Translations 0
L2C Translations Evicting Translations 25
L2C Data Evicting Translations 7404
L2C Dense regions hint from L2: 0
PSCL5 TOTAL     ACCESS:      32662  HIT:      32662  MISS:          0  HIT %:        100  MISS %:          0   MPKI: 0
PSCL5 LOAD TRANSLATION ACCESS:      32661  HIT:      32661  MISS:          0  HIT %:        100  MISS %:          0   MPKI: 0
PSCL5 TRANSLATION FROM L1D PREFETCHER ACCESS:          1  HIT:          1  MISS:          0  HIT %:        100  MISS %:          0   MPKI: 0
PSCL5 PREFETCH  REQUESTED:          0  ISSUED:          0  USEFUL:          0  USELESS:          0
PSCL5 USEFUL LOAD PREFETCHES:          0 PREFETCH ISSUED TO LOWER LEVEL:          0  ACCURACY: -nan
PSCL5 TIMELY PREFETCHES:          0 LATE PREFETCHES: 0 DROPPED PREFETCHES: 0
PSCL5 PREFETCHES SAME FILL-ORIGIN LEVEL: 0 DIFFERENT FILL-ORIGIN LEVEL: 0

PSCL4 TOTAL     ACCESS:      32662  HIT:      32662  MISS:          0  HIT %:        100  MISS %:          0   MPKI: 0
PSCL4 LOAD TRANSLATION ACCESS:      32661  HIT:      32661  MISS:          0  HIT %:        100  MISS %:          0   MPKI: 0
PSCL4 TRANSLATION FROM L1D PREFETCHER ACCESS:          1  HIT:          1  MISS:          0  HIT %:        100  MISS %:          0   MPKI: 0
PSCL4 PREFETCH  REQUESTED:          0  ISSUED:          0  USEFUL:          0  USELESS:          0
PSCL4 USEFUL LOAD PREFETCHES:          0 PREFETCH ISSUED TO LOWER LEVEL:          0  ACCURACY: -nan
PSCL4 TIMELY PREFETCHES:          0 LATE PREFETCHES: 0 DROPPED PREFETCHES: 0
PSCL4 PREFETCHES SAME FILL-ORIGIN LEVEL: 0 DIFFERENT FILL-ORIGIN LEVEL: 0

PSCL3 TOTAL     ACCESS:      32662  HIT:      32662  MISS:          0  HIT %:        100  MISS %:          0   MPKI: 0
PSCL3 LOAD TRANSLATION ACCESS:      32661  HIT:      32661  MISS:          0  HIT %:        100  MISS %:          0   MPKI: 0
PSCL3 TRANSLATION FROM L1D PREFETCHER ACCESS:          1  HIT:          1  MISS:          0  HIT %:        100  MISS %:          0   MPKI: 0
PSCL3 PREFETCH  REQUESTED:          0  ISSUED:          0  USEFUL:          0  USELESS:          0
PSCL3 USEFUL LOAD PREFETCHES:          0 PREFETCH ISSUED TO LOWER LEVEL:          0  ACCURACY: -nan
PSCL3 TIMELY PREFETCHES:          0 LATE PREFETCHES: 0 DROPPED PREFETCHES: 0
PSCL3 PREFETCHES SAME FILL-ORIGIN LEVEL: 0 DIFFERENT FILL-ORIGIN LEVEL: 0

PSCL2 TOTAL     ACCESS:      32662  HIT:      31941  MISS:        721  HIT %:    97.7925  MISS %:    2.20746   MPKI: 0.02884
PSCL2 LOAD TRANSLATION ACCESS:      32661  HIT:      31940  MISS:        721  HIT %:    97.7925  MISS %:    2.20753   MPKI: 0.02884
PSCL2 TRANSLATION FROM L1D PREFETCHER ACCESS:          1  HIT:          1  MISS:          0  HIT %:        100  MISS %:          0   MPKI: 0
PSCL2 PREFETCH  REQUESTED:          0  ISSUED:          0  USEFUL:          0  USELESS:          0
PSCL2 USEFUL LOAD PREFETCHES:          0 PREFETCH ISSUED TO LOWER LEVEL:          0  ACCURACY: -nan
PSCL2 TIMELY PREFETCHES:          0 LATE PREFETCHES: 0 DROPPED PREFETCHES: 0
PSCL2 PREFETCHES SAME FILL-ORIGIN LEVEL: 0 DIFFERENT FILL-ORIGIN LEVEL: 0

LLC TOTAL     ACCESS:    1769101  HIT:       5948  MISS:    1763153  HIT %:   0.336216  MISS %:    99.6638   MPKI: 70.5261
LLC LOAD      ACCESS:     446536  HIT:        174  MISS:     446362  HIT %:  0.0389666  MISS %:     99.961   MPKI: 17.8545
LLC RFO       ACCESS:        693  HIT:          1  MISS:        692  HIT %:     0.1443  MISS %:    99.8557   MPKI: 0.02768
LLC PREFETCH  ACCESS:    1311655  HIT:       2689  MISS:    1308966  HIT %:   0.205008  MISS %:     99.795   MPKI: 52.3586
AGUS PREFETCH L1 MISS: 0
LLC WRITEBACK ACCESS:       2775  HIT:       2763  MISS:         12  HIT %:    99.5676  MISS %:   0.432432   MPKI: 0.00048
LLC LOAD TRANSLATION ACCESS:       7442  HIT:        321  MISS:       7121  HIT %:    4.31336  MISS %:    95.6866   MPKI: 0.28484
LLC PREFETCH  REQUESTED:          0  ISSUED:          0  USEFUL:         18  USELESS:    1310714
LLC USEFUL LOAD PREFETCHES:         18 PREFETCH ISSUED TO LOWER LEVEL:    1308966  ACCURACY: 0.00137513
LLC TIMELY PREFETCHES:         18 LATE PREFETCHES: 0 DROPPED PREFETCHES: 0
LLC PREFETCHES SAME FILL-ORIGIN LEVEL: 0 DIFFERENT FILL-ORIGIN LEVEL: 0
LLC AVERAGE MISS LATENCY: 76.6343 cycles
LLC RQ	ACCESS:     454671	FORWARD:          0	MERGED:          0	TO_CACHE:     454671
LLC WQ	ACCESS:       2775	FORWARD:          0	MERGED:          0	TO_CACHE:       2775
LLC PQ	ACCESS:    1311655	FORWARD:          0	MERGED:          0	TO_CACHE:    1311655

LLC Dense regions hint to LLC: 0

RAW hits: 4306
Loads Generated: 8976947
Loads sent to L1D: 8972641
Stores Generated: 370377
Stores sent to L1D: 370377
Major fault: 0 Minor fault: 48857
Allocated PAGES: 48857
CPU 0 L1D complex stride prefetcher final stats
Degree: 5

DRAM Statistics
 CHANNEL 0
 RQ ROW_BUFFER_HIT:    1657747  ROW_BUFFER_MISS:     105394
 DBUS_CONGESTED:        218
 WQ ROW_BUFFER_HIT:       1562  ROW_BUFFER_MISS:       1209  FULL:          0

 AVG_CONGESTED_CYCLE: 5
 All warmup complete: 2
Channel 0 Bank busy for read cycles: 0
Channel 0 Bank busy for write cycles: 0
Channel 0
Rank 0
0banks busy for read cycles: 66976403
0banks busy for write cycles: 1531
1banks busy for read cycles: 37569089
1banks busy for write cycles: 510728
2banks busy for read cycles: 16820857
2banks busy for write cycles: 193981
3banks busy for read cycles: 5986192
3banks busy for write cycles: 71364
4banks busy for read cycles: 1410537
4banks busy for write cycles: 24744
5banks busy for read cycles: 396499
5banks busy for write cycles: 4436
6banks busy for read cycles: 290637
6banks busy for write cycles: 1388
7banks busy for read cycles: 20908
7banks busy for write cycles: 230
8banks busy for read cycles: 1711
8banks busy for write cycles: 0

CPU 0 Branch Prediction Accuracy: 99.1323% MPKI: 3.09396 Average ROB Occupancy at Mispredict: 120.529
Branch types
NOT_BRANCH: 16085563 64.3423%
BRANCH_DIRECT_JUMP: 85874 0.343496%
BRANCH_INDIRECT: 0 0%
BRANCH_CONDITIONAL: 8744101 34.9764%
BRANCH_DIRECT_CALL: 42053 0.168212%
BRANCH_INDIRECT_CALL: 0 0%
BRANCH_RETURN: 42053 0.168212%
BRANCH_OTHER: 0 0%

DRAM PAGES: 1048576
Allocated PAGES: 48857
