
*** ChampSim Multicore Out-of-Order Simulator ***

Warmup Instructions: 25000000
Simulation Instructions: 25000000
Number of CPUs: 1
LLC sets: 2048
LLC ways: 16
Off-chip DRAM Size: 4096 MB Channels: 1 Width: 64-bit Data Rate: 6400 MT/s
CPU 0 runs /home/yashas/CS683/pa2-lehra-do-prefetcher-wronganswersonly/traces/trace1.champsimtrace.xz
.xz
CPU 0 Bimodal branch predictor
BTB has LRU replacement policy
ITLB has LRU replacement policy
DTLB has LRU replacement policy
STLB has LRU replacement policy
L1I has LRU replacement policy
CPU 0 L1D Optimized prefetcher
L1D has LRU replacement policy
L2C has LRU replacement policy
LLC has LRU replacement policy
Heartbeat CPU 0 instructions: 10000003 cycles: 2830061 heartbeat IPC: 3.53349 cumulative IPC: 3.53349 (Simulation time: 0 hr 0 min 15 sec) 
Heartbeat CPU 0 instructions: 20000003 cycles: 5650207 heartbeat IPC: 3.54592 cumulative IPC: 3.53969 (Simulation time: 0 hr 0 min 30 sec) 

Warmup complete CPU 0 instructions: 25000004 cycles: 7064357 (Simulation time: 0 hr 0 min 37 sec) 

Heartbeat CPU 0 instructions: 30000002 cycles: 23995873 heartbeat IPC: 0.545088 cumulative IPC: 0.295307 (Simulation time: 0 hr 0 min 58 sec) 
IP_STRIDE Accuracy is 16.2927 
Switching to CPLX L1D prefetcher
Heartbeat CPU 0 instructions: 40000001 cycles: 60337594 heartbeat IPC: 0.275166 cumulative IPC: 0.281567 (Simulation time: 0 hr 1 min 41 sec) 
CPLX Accuracy is 10.5469 
Switching to NL L1D prefetcher
NL Accuracy is 186.965 
Prefetcher set to NL
Heartbeat CPU 0 instructions: 50000000 cycles: 93902752 heartbeat IPC: 0.297928 cumulative IPC: 0.287891 (Simulation time: 0 hr 2 min 25 sec) 
Finished CPU 0 instructions: 25000000 cycles: 86838396 cumulative IPC: 0.287891 (Simulation time: 0 hr 2 min 25 sec) 

ChampSim completed all CPUs

Region of Interest Statistics

CPU 0 cumulative IPC: 0.287891 instructions: 25000000 cycles: 86838396
ITLB TOTAL     ACCESS:    4444529  HIT:    4444529  MISS:          0  HIT %:        100  MISS %:          0   MPKI: 0
ITLB LOAD TRANSLATION ACCESS:    4444529  HIT:    4444529  MISS:          0  HIT %:        100  MISS %:          0   MPKI: 0
ITLB PREFETCH  REQUESTED:          0  ISSUED:          0  USEFUL:          0  USELESS:          0
ITLB USEFUL LOAD PREFETCHES:          0 PREFETCH ISSUED TO LOWER LEVEL:          0  ACCURACY: -nan
ITLB TIMELY PREFETCHES:          0 LATE PREFETCHES: 0 DROPPED PREFETCHES: 0
ITLB PREFETCHES SAME FILL-ORIGIN LEVEL: 0 DIFFERENT FILL-ORIGIN LEVEL: 0
ITLB AVERAGE MISS LATENCY: -nan cycles
ITLB RQ	ACCESS:    4796369	FORWARD:          0	MERGED:     351841	TO_CACHE:    4444528

DTLB TOTAL     ACCESS:    3720747  HIT:    3057839  MISS:     662908  HIT %:    82.1835  MISS %:    17.8165   MPKI: 26.5163
DTLB LOAD TRANSLATION ACCESS:    3720747  HIT:    3057839  MISS:     662908  HIT %:    82.1835  MISS %:    17.8165   MPKI: 26.5163
DTLB PREFETCH  REQUESTED:          0  ISSUED:          0  USEFUL:          0  USELESS:          0
DTLB USEFUL LOAD PREFETCHES:          0 PREFETCH ISSUED TO LOWER LEVEL:          0  ACCURACY: -nan
DTLB TIMELY PREFETCHES:          0 LATE PREFETCHES: 0 DROPPED PREFETCHES: 0
DTLB PREFETCHES SAME FILL-ORIGIN LEVEL: 0 DIFFERENT FILL-ORIGIN LEVEL: 0
DTLB AVERAGE MISS LATENCY: 56.7602 cycles
DTLB RQ	ACCESS:    4320250	FORWARD:          0	MERGED:     591418	TO_CACHE:    3728832

STLB TOTAL     ACCESS:     897627  HIT:     335579  MISS:     562048  HIT %:    37.3851  MISS %:    62.6149   MPKI: 22.4819
STLB LOAD TRANSLATION ACCESS:     662908  HIT:     100885  MISS:     562023  HIT %:    15.2186  MISS %:    84.7814   MPKI: 22.4809
STLB TRANSLATION FROM L1D PREFETCHER ACCESS:     234719  HIT:     234694  MISS:         25  HIT %:    99.9893  MISS %:   0.010651   MPKI: 0.001
STLB PREFETCH  REQUESTED:          0  ISSUED:          0  USEFUL:         23  USELESS:          2
STLB USEFUL LOAD PREFETCHES:         23 PREFETCH ISSUED TO LOWER LEVEL:          0  ACCURACY: inf
STLB TIMELY PREFETCHES:         23 LATE PREFETCHES: 0 DROPPED PREFETCHES: 0
STLB PREFETCHES SAME FILL-ORIGIN LEVEL: 0 DIFFERENT FILL-ORIGIN LEVEL: 0
STLB AVERAGE MISS LATENCY: 56.1889 cycles
STLB RQ	ACCESS:    1765239	FORWARD:          0	MERGED:     867607	TO_CACHE:     897632

STLB Hit, L1D data hit: 0
STLB Hit, L2C data hit: 0
STLB Hit, LLC data hit: 0
STLB Hit, LLC data miss: 0
STLB STLB hints to L2: 0
L1D TOTAL     ACCESS:    5353150  HIT:    3789614  MISS:    1563536  HIT %:    70.7922  MISS %:    29.2078   MPKI: 62.5414
L1D LOAD      ACCESS:    3191302  HIT:    2056481  MISS:    1134821  HIT %:    64.4402  MISS %:    35.5598   MPKI: 45.3928
L1D RFO       ACCESS:    1108661  HIT:    1039297  MISS:      69364  HIT %:    93.7434  MISS %:    6.25656   MPKI: 2.77456
L1D PREFETCH  ACCESS:    1053187  HIT:     693836  MISS:     359351  HIT %:    65.8797  MISS %:    34.1203   MPKI: 14.374
AGUS PREFETCH L1 MISS: 0
L1D PREFETCH  REQUESTED:    2565601  ISSUED:    2560491  USEFUL:       1801  USELESS:     356971
L1D USEFUL LOAD PREFETCHES:       1801 PREFETCH ISSUED TO LOWER LEVEL:     359957  ACCURACY: 0.500338
L1D TIMELY PREFETCHES:       1801 LATE PREFETCHES: 603 DROPPED PREFETCHES: 0
L1D PREFETCHES SAME FILL-ORIGIN LEVEL: 359957 DIFFERENT FILL-ORIGIN LEVEL: 0
L1D AVERAGE MISS LATENCY: 111.096 cycles
L1D RQ	ACCESS:    6161731	FORWARD:          0	MERGED:    2885428	TO_CACHE:    3211587
L1D WQ	ACCESS:    1108674	FORWARD:      64716	MERGED:         11	TO_CACHE:    1108663
L1D PQ	ACCESS:    1458164	FORWARD:          0	MERGED:     355837	TO_CACHE:    1102327

L1D UNIQUE REGIONS ACCESSED: 0
L1D REGIONS CONFLICTS: 0
L1D Cross Page Prefetch Requests: 0
L1D Same Page Prefetch Requests: 1458164
L1D ROI Sum of L1D PQ occupancy: 15499117
L1D PREFETCHES PUSHED FROM L2C: 0
L1I TOTAL     ACCESS:    4796369  HIT:    4796369  MISS:          0  HIT %:        100  MISS %:          0   MPKI: 0
L1I LOAD      ACCESS:    4796369  HIT:    4796369  MISS:          0  HIT %:        100  MISS %:          0   MPKI: 0
L1I PREFETCH  REQUESTED:          0  ISSUED:          0  USEFUL:          0  USELESS:          0
L1I USEFUL LOAD PREFETCHES:          0 PREFETCH ISSUED TO LOWER LEVEL:          0  ACCURACY: -nan
L1I TIMELY PREFETCHES:          0 LATE PREFETCHES: 0 DROPPED PREFETCHES: 0
L1I PREFETCHES SAME FILL-ORIGIN LEVEL: 0 DIFFERENT FILL-ORIGIN LEVEL: 0
L1I AVERAGE MISS LATENCY: -nan cycles
L1I RQ	ACCESS:    7120872	FORWARD:          0	MERGED:    2324503	TO_CACHE:    4796369

BTB TOTAL     ACCESS:    3283969  HIT:    3283961  MISS:          8  HIT %:    99.9998  MISS %: 0.000243608   MPKI: 0.00032
BTB BRANCH_DIRECT_JUMP	ACCESS:     568311  HIT:     568309  MISS:          2
BTB BRANCH_INDIRECT	ACCESS:          0  HIT:          0  MISS:          0
BTB BRANCH_CONDITIONAL	ACCESS:    1606988  HIT:    1606984  MISS:          4
BTB BRANCH_DIRECT_CALL	ACCESS:     554335  HIT:     554334  MISS:          1
BTB BRANCH_INDIRECT_CALL	ACCESS:          0  HIT:          0  MISS:          0
BTB BRANCH_RETURN	ACCESS:     554335  HIT:     554334  MISS:          1
BTB BRANCH_OTHER ACCESS:          0  HIT:          0  MISS:          0

L2C TOTAL     ACCESS:    2757036  HIT:    1399753  MISS:    1357283  HIT %:    50.7702  MISS %:    49.2298   MPKI: 54.2913
L2C LOAD      ACCESS:    1134218  HIT:     383520  MISS:     750698  HIT %:    33.8136  MISS %:    66.1864   MPKI: 30.0279
L2C DATA LOAD MPKI: 30.0279
L2C INSTRUCTION LOAD MPKI: 0
L2C RFO       ACCESS:      69364  HIT:      38784  MISS:      30580  HIT %:    55.9137  MISS %:    44.0863   MPKI: 1.2232
L2C PREFETCH  ACCESS:     359954  HIT:      50312  MISS:     309642  HIT %:    13.9773  MISS %:    86.0227   MPKI: 12.3857
AGUS PREFETCH L1 MISS: 0
L2C DATA PREFETCH MPKI: 12.3857
L2C INSTRUCTION PREFETCH MPKI: 0
L2C WRITEBACK ACCESS:     554589  HIT:     554589  MISS:          0  HIT %:        100  MISS %:          0   MPKI: 0
L2C LOAD TRANSLATION ACCESS:     638861  HIT:     372540  MISS:     266321  HIT %:    58.3132  MISS %:    41.6868   MPKI: 10.6528
L2C TRANSLATION FROM L1D PREFETCHER ACCESS:         50  HIT:          8  MISS:         42  HIT %:         16  MISS %:         84   MPKI: 0.00168
L2C PREFETCH  REQUESTED:          0  ISSUED:          0  USEFUL:        382  USELESS:     303903
L2C USEFUL LOAD PREFETCHES:        382 PREFETCH ISSUED TO LOWER LEVEL:     309645  ACCURACY: 0.123367
L2C TIMELY PREFETCHES:        382 LATE PREFETCHES: 0 DROPPED PREFETCHES: 0
L2C PREFETCHES SAME FILL-ORIGIN LEVEL: 0 DIFFERENT FILL-ORIGIN LEVEL: 0
L2C AVERAGE MISS LATENCY: 117.293 cycles
L2C RQ	ACCESS:    1842494	FORWARD:          0	MERGED:          0	TO_CACHE:    1842494
L2C WQ	ACCESS:     554589	FORWARD:          0	MERGED:          0	TO_CACHE:     554589
L2C PQ	ACCESS:     359957	FORWARD:          0	MERGED:          0	TO_CACHE:     359957

L2C Instructions Evicting Data 0
L2C Translations Evicting Data 174177
L2C Data Evicting Data 914858
L2C Instructions Evicting Instructions 0
L2C Translations Evicting Instructions 0
L2C Data Evicting Instructions 0
L2C Instructions Evicting Translations 0
L2C Translations Evicting Translations 92186
L2C Data Evicting Translations 176062
L2C Dense regions hint from L2: 0
PSCL5 TOTAL     ACCESS:     562050  HIT:     562050  MISS:          0  HIT %:        100  MISS %:          0   MPKI: 0
PSCL5 LOAD TRANSLATION ACCESS:     562025  HIT:     562025  MISS:          0  HIT %:        100  MISS %:          0   MPKI: 0
PSCL5 TRANSLATION FROM L1D PREFETCHER ACCESS:         25  HIT:         25  MISS:          0  HIT %:        100  MISS %:          0   MPKI: 0
PSCL5 PREFETCH  REQUESTED:          0  ISSUED:          0  USEFUL:          0  USELESS:          0
PSCL5 USEFUL LOAD PREFETCHES:          0 PREFETCH ISSUED TO LOWER LEVEL:          0  ACCURACY: -nan
PSCL5 TIMELY PREFETCHES:          0 LATE PREFETCHES: 0 DROPPED PREFETCHES: 0
PSCL5 PREFETCHES SAME FILL-ORIGIN LEVEL: 0 DIFFERENT FILL-ORIGIN LEVEL: 0

PSCL4 TOTAL     ACCESS:     562050  HIT:     562050  MISS:          0  HIT %:        100  MISS %:          0   MPKI: 0
PSCL4 LOAD TRANSLATION ACCESS:     562025  HIT:     562025  MISS:          0  HIT %:        100  MISS %:          0   MPKI: 0
PSCL4 TRANSLATION FROM L1D PREFETCHER ACCESS:         25  HIT:         25  MISS:          0  HIT %:        100  MISS %:          0   MPKI: 0
PSCL4 PREFETCH  REQUESTED:          0  ISSUED:          0  USEFUL:          0  USELESS:          0
PSCL4 USEFUL LOAD PREFETCHES:          0 PREFETCH ISSUED TO LOWER LEVEL:          0  ACCURACY: -nan
PSCL4 TIMELY PREFETCHES:          0 LATE PREFETCHES: 0 DROPPED PREFETCHES: 0
PSCL4 PREFETCHES SAME FILL-ORIGIN LEVEL: 0 DIFFERENT FILL-ORIGIN LEVEL: 0

PSCL3 TOTAL     ACCESS:     562050  HIT:     562050  MISS:          0  HIT %:        100  MISS %:          0   MPKI: 0
PSCL3 LOAD TRANSLATION ACCESS:     562025  HIT:     562025  MISS:          0  HIT %:        100  MISS %:          0   MPKI: 0
PSCL3 TRANSLATION FROM L1D PREFETCHER ACCESS:         25  HIT:         25  MISS:          0  HIT %:        100  MISS %:          0   MPKI: 0
PSCL3 PREFETCH  REQUESTED:          0  ISSUED:          0  USEFUL:          0  USELESS:          0
PSCL3 USEFUL LOAD PREFETCHES:          0 PREFETCH ISSUED TO LOWER LEVEL:          0  ACCURACY: -nan
PSCL3 TIMELY PREFETCHES:          0 LATE PREFETCHES: 0 DROPPED PREFETCHES: 0
PSCL3 PREFETCHES SAME FILL-ORIGIN LEVEL: 0 DIFFERENT FILL-ORIGIN LEVEL: 0

PSCL2 TOTAL     ACCESS:     562049  HIT:     485187  MISS:      76862  HIT %:    86.3247  MISS %:    13.6753   MPKI: 3.07448
PSCL2 LOAD TRANSLATION ACCESS:     562049  HIT:     485187  MISS:      76862  HIT %:    86.3247  MISS %:    13.6753   MPKI: 3.07448
PSCL2 PREFETCH  REQUESTED:          0  ISSUED:          0  USEFUL:          0  USELESS:          0
PSCL2 USEFUL LOAD PREFETCHES:          0 PREFETCH ISSUED TO LOWER LEVEL:          0  ACCURACY: -nan
PSCL2 TIMELY PREFETCHES:          0 LATE PREFETCHES: 0 DROPPED PREFETCHES: 0
PSCL2 PREFETCHES SAME FILL-ORIGIN LEVEL: 0 DIFFERENT FILL-ORIGIN LEVEL: 0

LLC TOTAL     ACCESS:    1914618  HIT:    1245715  MISS:     668903  HIT %:    65.0634  MISS %:    34.9366   MPKI: 26.7561
LLC LOAD      ACCESS:     750698  HIT:     161324  MISS:     589374  HIT %:    21.4899  MISS %:    78.5101   MPKI: 23.575
LLC RFO       ACCESS:      30580  HIT:      30533  MISS:         47  HIT %:    99.8463  MISS %:   0.153695   MPKI: 0.00188
LLC PREFETCH  ACCESS:     309642  HIT:     239532  MISS:      70110  HIT %:    77.3577  MISS %:    22.6423   MPKI: 2.8044
AGUS PREFETCH L1 MISS: 0
LLC WRITEBACK ACCESS:     557335  HIT:     557335  MISS:          0  HIT %:        100  MISS %:          0   MPKI: 0
LLC LOAD TRANSLATION ACCESS:     266321  HIT:     256953  MISS:       9368  HIT %:    96.4824  MISS %:    3.51756   MPKI: 0.37472
LLC TRANSLATION FROM L1D PREFETCHER ACCESS:         42  HIT:         38  MISS:          4  HIT %:    90.4762  MISS %:    9.52381   MPKI: 0.00016
LLC PREFETCH  REQUESTED:          0  ISSUED:          0  USEFUL:      52852  USELESS:       2446
LLC USEFUL LOAD PREFETCHES:      52852 PREFETCH ISSUED TO LOWER LEVEL:      70113  ACCURACY: 75.3812
LLC TIMELY PREFETCHES:      52852 LATE PREFETCHES: 0 DROPPED PREFETCHES: 0
LLC PREFETCHES SAME FILL-ORIGIN LEVEL: 0 DIFFERENT FILL-ORIGIN LEVEL: 0
LLC AVERAGE MISS LATENCY: 176.607 cycles
LLC RQ	ACCESS:    1047641	FORWARD:          0	MERGED:          0	TO_CACHE:    1047641
LLC WQ	ACCESS:     557335	FORWARD:          0	MERGED:          0	TO_CACHE:     557335
LLC PQ	ACCESS:     309645	FORWARD:          0	MERGED:          0	TO_CACHE:     309645

LLC Dense regions hint to LLC: 0

RAW hits: 488808
Loads Generated: 6650541
Loads sent to L1D: 6161731
Stores Generated: 1108674
Stores sent to L1D: 1108674
Major fault: 0 Minor fault: 23115
Allocated PAGES: 23115
CPU 0 L1D optimized prefetcher final stats
Degree: 5

DRAM Statistics
 CHANNEL 0
 RQ ROW_BUFFER_HIT:        994  ROW_BUFFER_MISS:     667909
 DBUS_CONGESTED:          5
 WQ ROW_BUFFER_HIT:     205208  ROW_BUFFER_MISS:     363365  FULL:          0

 AVG_CONGESTED_CYCLE: 5
 All warmup complete: 2
Channel 0 Bank busy for read cycles: 0
Channel 0 Bank busy for write cycles: 0
Channel 0
Rank 0
0banks busy for read cycles: 2527760
0banks busy for write cycles: 57705
1banks busy for read cycles: 20101828
1banks busy for write cycles: 4459565
2banks busy for read cycles: 14436131
2banks busy for write cycles: 6443405
3banks busy for read cycles: 11131638
3banks busy for write cycles: 9272988
4banks busy for read cycles: 3604617
4banks busy for write cycles: 7445004
5banks busy for read cycles: 102050
5banks busy for write cycles: 2775326
6banks busy for read cycles: 267859
6banks busy for write cycles: 1102245
7banks busy for read cycles: 94237
7banks busy for write cycles: 635769
8banks busy for read cycles: 101885
8banks busy for write cycles: 2278385

CPU 0 Branch Prediction Accuracy: 99.9685% MPKI: 0.04912 Average ROB Occupancy at Mispredict: 155.804
Branch types
NOT_BRANCH: 21105674 84.4227%
BRANCH_DIRECT_JUMP: 568311 2.27324%
BRANCH_INDIRECT: 0 0%
BRANCH_CONDITIONAL: 2217340 8.86936%
BRANCH_DIRECT_CALL: 554335 2.21734%
BRANCH_INDIRECT_CALL: 0 0%
BRANCH_RETURN: 554335 2.21734%
BRANCH_OTHER: 0 0%

DRAM PAGES: 1048576
Allocated PAGES: 23115
