
*** ChampSim Multicore Out-of-Order Simulator ***

Warmup Instructions: 25000000
Simulation Instructions: 25000000
Number of CPUs: 1
LLC sets: 2048
LLC ways: 16
Off-chip DRAM Size: 4096 MB Channels: 1 Width: 64-bit Data Rate: 6400 MT/s
CPU 0 runs /home/yashas/CS683/pa2-lehra-do-prefetcher-wronganswersonly/traces/trace2.champsimtrace.xz
.xz
CPU 0 Bimodal branch predictor
BTB has LRU replacement policy
ITLB has LRU replacement policy
DTLB has LRU replacement policy
STLB has LRU replacement policy
L1I has LRU replacement policy
CPU 0 L1D Complex-Stride prefetcher
L1D has LRU replacement policy
L2C has LRU replacement policy
LLC has LRU replacement policy
Heartbeat CPU 0 instructions: 10000002 cycles: 3744372 heartbeat IPC: 2.67068 cumulative IPC: 2.67068 (Simulation time: 0 hr 0 min 18 sec) 
Heartbeat CPU 0 instructions: 20000001 cycles: 7490432 heartbeat IPC: 2.66947 cumulative IPC: 2.67007 (Simulation time: 0 hr 0 min 35 sec) 

Warmup complete CPU 0 instructions: 25000001 cycles: 9362758 (Simulation time: 0 hr 0 min 44 sec) 

Heartbeat CPU 0 instructions: 30000001 cycles: 40623275 heartbeat IPC: 0.301815 cumulative IPC: 0.159946 (Simulation time: 0 hr 1 min 8 sec) 
Heartbeat CPU 0 instructions: 40000002 cycles: 103140991 heartbeat IPC: 0.159955 cumulative IPC: 0.159952 (Simulation time: 0 hr 1 min 55 sec) 
Heartbeat CPU 0 instructions: 50000000 cycles: 163879375 heartbeat IPC: 0.164641 cumulative IPC: 0.161795 (Simulation time: 0 hr 2 min 42 sec) 
Finished CPU 0 instructions: 25000000 cycles: 154516639 cumulative IPC: 0.161795 (Simulation time: 0 hr 2 min 42 sec) 

ChampSim completed all CPUs

Region of Interest Statistics

CPU 0 cumulative IPC: 0.161795 instructions: 25000000 cycles: 154516639
ITLB TOTAL     ACCESS:    5163279  HIT:    5163279  MISS:          0  HIT %:        100  MISS %:          0   MPKI: 0
ITLB LOAD TRANSLATION ACCESS:    5163279  HIT:    5163279  MISS:          0  HIT %:        100  MISS %:          0   MPKI: 0
ITLB PREFETCH  REQUESTED:          0  ISSUED:          0  USEFUL:          0  USELESS:          0
ITLB USEFUL LOAD PREFETCHES:          0 PREFETCH ISSUED TO LOWER LEVEL:          0  ACCURACY: -nan
ITLB TIMELY PREFETCHES:          0 LATE PREFETCHES: 0 DROPPED PREFETCHES: 0
ITLB PREFETCHES SAME FILL-ORIGIN LEVEL: 0 DIFFERENT FILL-ORIGIN LEVEL: 0
ITLB AVERAGE MISS LATENCY: -nan cycles
ITLB RQ	ACCESS:    5248710	FORWARD:          0	MERGED:      85432	TO_CACHE:    5163278

DTLB TOTAL     ACCESS:    3870171  HIT:    3836158  MISS:      34013  HIT %:    99.1211  MISS %:    0.87885   MPKI: 1.36052
DTLB LOAD TRANSLATION ACCESS:    3870171  HIT:    3836158  MISS:      34013  HIT %:    99.1211  MISS %:    0.87885   MPKI: 1.36052
DTLB PREFETCH  REQUESTED:          0  ISSUED:          0  USEFUL:          0  USELESS:          0
DTLB USEFUL LOAD PREFETCHES:          0 PREFETCH ISSUED TO LOWER LEVEL:          0  ACCURACY: -nan
DTLB TIMELY PREFETCHES:          0 LATE PREFETCHES: 0 DROPPED PREFETCHES: 0
DTLB PREFETCHES SAME FILL-ORIGIN LEVEL: 0 DIFFERENT FILL-ORIGIN LEVEL: 0
DTLB AVERAGE MISS LATENCY: 106.127 cycles
DTLB RQ	ACCESS:    4554019	FORWARD:          0	MERGED:     683733	TO_CACHE:    3870286

STLB TOTAL     ACCESS:    1482575  HIT:    1449913  MISS:      32662  HIT %:    97.7969  MISS %:    2.20306   MPKI: 1.30648
STLB LOAD TRANSLATION ACCESS:      34013  HIT:       1351  MISS:      32662  HIT %:    3.97201  MISS %:     96.028   MPKI: 1.30648
STLB TRANSLATION FROM L1D PREFETCHER ACCESS:    1448562  HIT:    1448562  MISS:          0  HIT %:        100  MISS %:          0   MPKI: 0
STLB PREFETCH  REQUESTED:          0  ISSUED:          0  USEFUL:          0  USELESS:          0
STLB USEFUL LOAD PREFETCHES:          0 PREFETCH ISSUED TO LOWER LEVEL:          0  ACCURACY: -nan
STLB TIMELY PREFETCHES:          0 LATE PREFETCHES: 0 DROPPED PREFETCHES: 0
STLB PREFETCHES SAME FILL-ORIGIN LEVEL: 0 DIFFERENT FILL-ORIGIN LEVEL: 0
STLB AVERAGE MISS LATENCY: 101.133 cycles
STLB RQ	ACCESS:    3225150	FORWARD:          0	MERGED:    1742575	TO_CACHE:    1482575

STLB Hit, L1D data hit: 0
STLB Hit, L2C data hit: 0
STLB Hit, LLC data hit: 0
STLB Hit, LLC data miss: 0
STLB STLB hints to L2: 0
L1D TOTAL     ACCESS:    5807716  HIT:    4044040  MISS:    1763676  HIT %:    69.6322  MISS %:    30.3678   MPKI: 70.547
L1D LOAD      ACCESS:    3901246  HIT:    2915244  MISS:     986002  HIT %:     74.726  MISS %:     25.274   MPKI: 39.4401
L1D RFO       ACCESS:     333820  HIT:     333101  MISS:        719  HIT %:    99.7846  MISS %:   0.215386   MPKI: 0.02876
L1D PREFETCH  ACCESS:    1572650  HIT:     795695  MISS:     776955  HIT %:    50.5958  MISS %:    49.4042   MPKI: 31.0782
AGUS PREFETCH L1 MISS: 0
L1D PREFETCH  REQUESTED:    6669255  ISSUED:    6669255  USEFUL:     763237  USELESS:      13731
L1D USEFUL LOAD PREFETCHES:     763237 PREFETCH ISSUED TO LOWER LEVEL:    1088140  ACCURACY: 70.1414
L1D TIMELY PREFETCHES:     763237 LATE PREFETCHES: 311185 DROPPED PREFETCHES: 0
L1D PREFETCHES SAME FILL-ORIGIN LEVEL: 1088140 DIFFERENT FILL-ORIGIN LEVEL: 0
L1D AVERAGE MISS LATENCY: 120.424 cycles
L1D RQ	ACCESS:    8972668	FORWARD:          0	MERGED:    4751035	TO_CACHE:    4220195
L1D WQ	ACCESS:     370377	FORWARD:       1438	MERGED:      36553	TO_CACHE:     333824
L1D PQ	ACCESS:    3478118	FORWARD:          0	MERGED:     286981	TO_CACHE:    3191137

L1D UNIQUE REGIONS ACCESSED: 0
L1D REGIONS CONFLICTS: 0
L1D Cross Page Prefetch Requests: 0
L1D Same Page Prefetch Requests: 14210447
L1D ROI Sum of L1D PQ occupancy: 41556152
L1D PREFETCHES PUSHED FROM L2C: 0
L1I TOTAL     ACCESS:    5248710  HIT:    5248710  MISS:          0  HIT %:        100  MISS %:          0   MPKI: 0
L1I LOAD      ACCESS:    5248710  HIT:    5248710  MISS:          0  HIT %:        100  MISS %:          0   MPKI: 0
L1I PREFETCH  REQUESTED:          0  ISSUED:          0  USEFUL:          0  USELESS:          0
L1I USEFUL LOAD PREFETCHES:          0 PREFETCH ISSUED TO LOWER LEVEL:          0  ACCURACY: -nan
L1I TIMELY PREFETCHES:          0 LATE PREFETCHES: 0 DROPPED PREFETCHES: 0
L1I PREFETCHES SAME FILL-ORIGIN LEVEL: 0 DIFFERENT FILL-ORIGIN LEVEL: 0
L1I AVERAGE MISS LATENCY: -nan cycles
L1I RQ	ACCESS:    7820264	FORWARD:          0	MERGED:    2571554	TO_CACHE:    5248710

BTB TOTAL     ACCESS:    5953193  HIT:    5953095  MISS:         98  HIT %:    99.9984  MISS %: 0.00164618   MPKI: 0.00392
BTB BRANCH_DIRECT_JUMP	ACCESS:      85874  HIT:      85848  MISS:         26
BTB BRANCH_INDIRECT	ACCESS:          0  HIT:          0  MISS:          0
BTB BRANCH_CONDITIONAL	ACCESS:    5783213  HIT:    5783164  MISS:         49
BTB BRANCH_DIRECT_CALL	ACCESS:      42053  HIT:      42043  MISS:         10
BTB BRANCH_INDIRECT_CALL	ACCESS:          0  HIT:          0  MISS:          0
BTB BRANCH_RETURN	ACCESS:      42053  HIT:      42040  MISS:         13
BTB BRANCH_OTHER ACCESS:          0  HIT:          0  MISS:          0

L2C TOTAL     ACCESS:    1799734  HIT:      38095  MISS:    1761639  HIT %:     2.1167  MISS %:    97.8833   MPKI: 70.4656
L2C LOAD      ACCESS:     674816  HIT:        815  MISS:     674001  HIT %:   0.120774  MISS %:    99.8792   MPKI: 26.96
L2C DATA LOAD MPKI: 26.96
L2C INSTRUCTION LOAD MPKI: 0
L2C RFO       ACCESS:        719  HIT:          0  MISS:        719  HIT %:          0  MISS %:        100   MPKI: 0.02876
L2C PREFETCH  ACCESS:    1088140  HIT:       8669  MISS:    1079471  HIT %:   0.796681  MISS %:    99.2033   MPKI: 43.1788
AGUS PREFETCH L1 MISS: 0
L2C DATA PREFETCH MPKI: 43.1788
L2C INSTRUCTION PREFETCH MPKI: 0
L2C WRITEBACK ACCESS:       2774  HIT:       2766  MISS:          8  HIT %:    99.7116  MISS %:   0.288392   MPKI: 0.00032
L2C LOAD TRANSLATION ACCESS:      33285  HIT:      25845  MISS:       7440  HIT %:    77.6476  MISS %:    22.3524   MPKI: 0.2976
L2C PREFETCH  REQUESTED:          0  ISSUED:          0  USEFUL:        160  USELESS:    1081153
L2C USEFUL LOAD PREFETCHES:        160 PREFETCH ISSUED TO LOWER LEVEL:    1079471  ACCURACY: 0.0148221
L2C TIMELY PREFETCHES:        160 LATE PREFETCHES: 0 DROPPED PREFETCHES: 0
L2C PREFETCHES SAME FILL-ORIGIN LEVEL: 0 DIFFERENT FILL-ORIGIN LEVEL: 0
L2C AVERAGE MISS LATENCY: 106.213 cycles
L2C RQ	ACCESS:     708821	FORWARD:          0	MERGED:          0	TO_CACHE:     708820
L2C WQ	ACCESS:       2774	FORWARD:          1	MERGED:          0	TO_CACHE:       2774
L2C PQ	ACCESS:    1088140	FORWARD:          0	MERGED:          0	TO_CACHE:    1088140

L2C Instructions Evicting Data 0
L2C Translations Evicting Data 7416
L2C Data Evicting Data 1746789
L2C Instructions Evicting Instructions 0
L2C Translations Evicting Instructions 0
L2C Data Evicting Instructions 0
L2C Instructions Evicting Translations 0
L2C Translations Evicting Translations 24
L2C Data Evicting Translations 7402
L2C Dense regions hint from L2: 0
PSCL5 TOTAL     ACCESS:      32662  HIT:      32662  MISS:          0  HIT %:        100  MISS %:          0   MPKI: 0
PSCL5 LOAD TRANSLATION ACCESS:      32662  HIT:      32662  MISS:          0  HIT %:        100  MISS %:          0   MPKI: 0
PSCL5 PREFETCH  REQUESTED:          0  ISSUED:          0  USEFUL:          0  USELESS:          0
PSCL5 USEFUL LOAD PREFETCHES:          0 PREFETCH ISSUED TO LOWER LEVEL:          0  ACCURACY: -nan
PSCL5 TIMELY PREFETCHES:          0 LATE PREFETCHES: 0 DROPPED PREFETCHES: 0
PSCL5 PREFETCHES SAME FILL-ORIGIN LEVEL: 0 DIFFERENT FILL-ORIGIN LEVEL: 0

PSCL4 TOTAL     ACCESS:      32662  HIT:      32662  MISS:          0  HIT %:        100  MISS %:          0   MPKI: 0
PSCL4 LOAD TRANSLATION ACCESS:      32662  HIT:      32662  MISS:          0  HIT %:        100  MISS %:          0   MPKI: 0
PSCL4 PREFETCH  REQUESTED:          0  ISSUED:          0  USEFUL:          0  USELESS:          0
PSCL4 USEFUL LOAD PREFETCHES:          0 PREFETCH ISSUED TO LOWER LEVEL:          0  ACCURACY: -nan
PSCL4 TIMELY PREFETCHES:          0 LATE PREFETCHES: 0 DROPPED PREFETCHES: 0
PSCL4 PREFETCHES SAME FILL-ORIGIN LEVEL: 0 DIFFERENT FILL-ORIGIN LEVEL: 0

PSCL3 TOTAL     ACCESS:      32662  HIT:      32662  MISS:          0  HIT %:        100  MISS %:          0   MPKI: 0
PSCL3 LOAD TRANSLATION ACCESS:      32662  HIT:      32662  MISS:          0  HIT %:        100  MISS %:          0   MPKI: 0
PSCL3 PREFETCH  REQUESTED:          0  ISSUED:          0  USEFUL:          0  USELESS:          0
PSCL3 USEFUL LOAD PREFETCHES:          0 PREFETCH ISSUED TO LOWER LEVEL:          0  ACCURACY: -nan
PSCL3 TIMELY PREFETCHES:          0 LATE PREFETCHES: 0 DROPPED PREFETCHES: 0
PSCL3 PREFETCHES SAME FILL-ORIGIN LEVEL: 0 DIFFERENT FILL-ORIGIN LEVEL: 0

PSCL2 TOTAL     ACCESS:      32662  HIT:      31941  MISS:        721  HIT %:    97.7925  MISS %:    2.20746   MPKI: 0.02884
PSCL2 LOAD TRANSLATION ACCESS:      32662  HIT:      31941  MISS:        721  HIT %:    97.7925  MISS %:    2.20746   MPKI: 0.02884
PSCL2 PREFETCH  REQUESTED:          0  ISSUED:          0  USEFUL:          0  USELESS:          0
PSCL2 USEFUL LOAD PREFETCHES:          0 PREFETCH ISSUED TO LOWER LEVEL:          0  ACCURACY: -nan
PSCL2 TIMELY PREFETCHES:          0 LATE PREFETCHES: 0 DROPPED PREFETCHES: 0
PSCL2 PREFETCHES SAME FILL-ORIGIN LEVEL: 0 DIFFERENT FILL-ORIGIN LEVEL: 0

LLC TOTAL     ACCESS:    1764400  HIT:       4407  MISS:    1759993  HIT %:   0.249773  MISS %:    99.7502   MPKI: 70.3997
LLC LOAD      ACCESS:     674001  HIT:         67  MISS:     673934  HIT %: 0.00994064  MISS %:    99.9901   MPKI: 26.9574
LLC RFO       ACCESS:        719  HIT:          0  MISS:        719  HIT %:          0  MISS %:        100   MPKI: 0.02876
LLC PREFETCH  ACCESS:    1079471  HIT:       1259  MISS:    1078212  HIT %:   0.116631  MISS %:    99.8834   MPKI: 43.1285
AGUS PREFETCH L1 MISS: 0
LLC WRITEBACK ACCESS:       2769  HIT:       2761  MISS:          8  HIT %:    99.7111  MISS %:   0.288913   MPKI: 0.00032
LLC LOAD TRANSLATION ACCESS:       7440  HIT:        320  MISS:       7120  HIT %:    4.30108  MISS %:    95.6989   MPKI: 0.2848
LLC PREFETCH  REQUESTED:          0  ISSUED:          0  USEFUL:          5  USELESS:    1084372
LLC USEFUL LOAD PREFETCHES:          5 PREFETCH ISSUED TO LOWER LEVEL:    1078212  ACCURACY: 0.000463731
LLC TIMELY PREFETCHES:          5 LATE PREFETCHES: 0 DROPPED PREFETCHES: 0
LLC PREFETCHES SAME FILL-ORIGIN LEVEL: 0 DIFFERENT FILL-ORIGIN LEVEL: 0
LLC AVERAGE MISS LATENCY: 76.2659 cycles
LLC RQ	ACCESS:     682160	FORWARD:          0	MERGED:          0	TO_CACHE:     682160
LLC WQ	ACCESS:       2769	FORWARD:          0	MERGED:          0	TO_CACHE:       2769
LLC PQ	ACCESS:    1079471	FORWARD:          0	MERGED:          0	TO_CACHE:    1079471

LLC Dense regions hint to LLC: 0

RAW hits: 4279
Loads Generated: 8976947
Loads sent to L1D: 8972668
Stores Generated: 370377
Stores sent to L1D: 370377
Major fault: 0 Minor fault: 48857
Allocated PAGES: 48857
CPU 0 L1D complex stride prefetcher final stats
Degree: 5

DRAM Statistics
 CHANNEL 0
 RQ ROW_BUFFER_HIT:    1655674  ROW_BUFFER_MISS:     104311
 DBUS_CONGESTED:        238
 WQ ROW_BUFFER_HIT:       1699  ROW_BUFFER_MISS:       1066  FULL:          0

 AVG_CONGESTED_CYCLE: 6
 All warmup complete: 2
Channel 0 Bank busy for read cycles: 0
Channel 0 Bank busy for write cycles: 0
Channel 0
Rank 0
0banks busy for read cycles: 86812303
0banks busy for write cycles: 1558
1banks busy for read cycles: 44843048
1banks busy for write cycles: 620932
2banks busy for read cycles: 14624189
2banks busy for write cycles: 227097
3banks busy for read cycles: 5693744
3banks busy for write cycles: 78538
4banks busy for read cycles: 975407
4banks busy for write cycles: 30520
5banks busy for read cycles: 264692
5banks busy for write cycles: 5210
6banks busy for read cycles: 325548
6banks busy for write cycles: 2159
7banks busy for read cycles: 10665
7banks busy for write cycles: 230
8banks busy for read cycles: 800
8banks busy for write cycles: 0

CPU 0 Branch Prediction Accuracy: 99.1323% MPKI: 3.09396 Average ROB Occupancy at Mispredict: 121.94
Branch types
NOT_BRANCH: 16085563 64.3423%
BRANCH_DIRECT_JUMP: 85874 0.343496%
BRANCH_INDIRECT: 0 0%
BRANCH_CONDITIONAL: 8744101 34.9764%
BRANCH_DIRECT_CALL: 42053 0.168212%
BRANCH_INDIRECT_CALL: 0 0%
BRANCH_RETURN: 42053 0.168212%
BRANCH_OTHER: 0 0%

DRAM PAGES: 1048576
Allocated PAGES: 48857
