
*** ChampSim Multicore Out-of-Order Simulator ***

Warmup Instructions: 25000000
Simulation Instructions: 25000000
Number of CPUs: 1
LLC sets: 2048
LLC ways: 16
Off-chip DRAM Size: 4096 MB Channels: 1 Width: 64-bit Data Rate: 6400 MT/s
CPU 0 runs /home/yashas/CS683/pa2-lehra-do-prefetcher-wronganswersonly/traces/trace3.champsimtrace.xz
.xz
CPU 0 Bimodal branch predictor
BTB has LRU replacement policy
ITLB has LRU replacement policy
DTLB has LRU replacement policy
STLB has LRU replacement policy
L1I has LRU replacement policy
CPU 0 L1D IP-based stride prefetcher
L1D has LRU replacement policy
L2C has LRU replacement policy
LLC has LRU replacement policy
Heartbeat CPU 0 instructions: 10000001 cycles: 3742768 heartbeat IPC: 2.67182 cumulative IPC: 2.67182 (Simulation time: 0 hr 0 min 19 sec) 
Heartbeat CPU 0 instructions: 20000000 cycles: 7455629 heartbeat IPC: 2.69334 cumulative IPC: 2.68254 (Simulation time: 0 hr 0 min 39 sec) 

Warmup complete CPU 0 instructions: 25000004 cycles: 9342112 (Simulation time: 0 hr 0 min 49 sec) 

Heartbeat CPU 0 instructions: 30000001 cycles: 37642462 heartbeat IPC: 0.33127 cumulative IPC: 0.176676 (Simulation time: 0 hr 1 min 10 sec) 
Heartbeat CPU 0 instructions: 40000001 cycles: 94699807 heartbeat IPC: 0.175262 cumulative IPC: 0.175731 (Simulation time: 0 hr 1 min 52 sec) 
Heartbeat CPU 0 instructions: 50000000 cycles: 155028386 heartbeat IPC: 0.165759 cumulative IPC: 0.171602 (Simulation time: 0 hr 2 min 35 sec) 
Finished CPU 0 instructions: 25000000 cycles: 145686276 cumulative IPC: 0.171602 (Simulation time: 0 hr 2 min 35 sec) 

ChampSim completed all CPUs

Region of Interest Statistics

CPU 0 cumulative IPC: 0.171602 instructions: 25000000 cycles: 145686276
ITLB TOTAL     ACCESS:    4038847  HIT:    4038847  MISS:          0  HIT %:        100  MISS %:          0   MPKI: 0
ITLB LOAD TRANSLATION ACCESS:    4038847  HIT:    4038847  MISS:          0  HIT %:        100  MISS %:          0   MPKI: 0
ITLB PREFETCH  REQUESTED:          0  ISSUED:          0  USEFUL:          0  USELESS:          0
ITLB USEFUL LOAD PREFETCHES:          0 PREFETCH ISSUED TO LOWER LEVEL:          0  ACCURACY: -nan
ITLB TIMELY PREFETCHES:          0 LATE PREFETCHES: 0 DROPPED PREFETCHES: 0
ITLB PREFETCHES SAME FILL-ORIGIN LEVEL: 0 DIFFERENT FILL-ORIGIN LEVEL: 0
ITLB AVERAGE MISS LATENCY: -nan cycles
ITLB RQ	ACCESS:    4090091	FORWARD:          0	MERGED:      51245	TO_CACHE:    4038846

DTLB TOTAL     ACCESS:    5222775  HIT:    3018834  MISS:    2203941  HIT %:    57.8013  MISS %:    42.1987   MPKI: 88.1576
DTLB LOAD TRANSLATION ACCESS:    5222775  HIT:    3018834  MISS:    2203941  HIT %:    57.8013  MISS %:    42.1987   MPKI: 88.1576
DTLB PREFETCH  REQUESTED:          0  ISSUED:          0  USEFUL:          0  USELESS:          0
DTLB USEFUL LOAD PREFETCHES:          0 PREFETCH ISSUED TO LOWER LEVEL:          0  ACCURACY: -nan
DTLB TIMELY PREFETCHES:          0 LATE PREFETCHES: 0 DROPPED PREFETCHES: 0
DTLB PREFETCHES SAME FILL-ORIGIN LEVEL: 0 DIFFERENT FILL-ORIGIN LEVEL: 0
DTLB AVERAGE MISS LATENCY: 11.1713 cycles
DTLB RQ	ACCESS:    5752366	FORWARD:          0	MERGED:     494947	TO_CACHE:    5257419

STLB TOTAL     ACCESS:    2813300  HIT:    2784216  MISS:      29084  HIT %:    98.9662  MISS %:     1.0338   MPKI: 1.16336
STLB LOAD TRANSLATION ACCESS:    2203941  HIT:    2174857  MISS:      29084  HIT %:    98.6804  MISS %:    1.31964   MPKI: 1.16336
STLB TRANSLATION FROM L1D PREFETCHER ACCESS:     609359  HIT:     609359  MISS:          0  HIT %:        100  MISS %:          0   MPKI: 0
STLB PREFETCH  REQUESTED:          0  ISSUED:          0  USEFUL:          0  USELESS:          0
STLB USEFUL LOAD PREFETCHES:          0 PREFETCH ISSUED TO LOWER LEVEL:          0  ACCURACY: -nan
STLB TIMELY PREFETCHES:          0 LATE PREFETCHES: 0 DROPPED PREFETCHES: 0
STLB PREFETCHES SAME FILL-ORIGIN LEVEL: 0 DIFFERENT FILL-ORIGIN LEVEL: 0
STLB AVERAGE MISS LATENCY: 133.677 cycles
STLB RQ	ACCESS:    5198361	FORWARD:          0	MERGED:    2385061	TO_CACHE:    2813300

STLB Hit, L1D data hit: 0
STLB Hit, L2C data hit: 0
STLB Hit, LLC data hit: 0
STLB Hit, LLC data miss: 0
STLB STLB hints to L2: 0
L1D TOTAL     ACCESS:    7194876  HIT:    3311229  MISS:    3883647  HIT %:     46.022  MISS %:     53.978   MPKI: 155.346
L1D LOAD      ACCESS:    5249949  HIT:    2129697  MISS:    3120252  HIT %:    40.5661  MISS %:    59.4339   MPKI: 124.81
L1D RFO       ACCESS:     424235  HIT:     416405  MISS:       7830  HIT %:    98.1543  MISS %:    1.84568   MPKI: 0.3132
L1D PREFETCH  ACCESS:    1520692  HIT:     765127  MISS:     755565  HIT %:    50.3144  MISS %:    49.6856   MPKI: 30.2226
AGUS PREFETCH L1 MISS: 0
L1D PREFETCH  REQUESTED:    6583226  ISSUED:    6583226  USEFUL:     754057  USELESS:       1511
L1D USEFUL LOAD PREFETCHES:     754057 PREFETCH ISSUED TO LOWER LEVEL:    1162241  ACCURACY: 64.8796
L1D TIMELY PREFETCHES:     754057 LATE PREFETCHES: 406676 DROPPED PREFETCHES: 0
L1D PREFETCHES SAME FILL-ORIGIN LEVEL: 1162241 DIFFERENT FILL-ORIGIN LEVEL: 0
L1D AVERAGE MISS LATENCY: 113.814 cycles
L1D RQ	ACCESS:    8951634	FORWARD:          0	MERGED:    3577516	TO_CACHE:    5309243
L1D WQ	ACCESS:     459661	FORWARD:      64875	MERGED:      16538	TO_CACHE:     443123
L1D PQ	ACCESS:    3588806	FORWARD:          0	MERGED:     594386	TO_CACHE:    2994420

L1D UNIQUE REGIONS ACCESSED: 0
L1D REGIONS CONFLICTS: 0
L1D Cross Page Prefetch Requests: 0
L1D Same Page Prefetch Requests: 7882926
L1D ROI Sum of L1D PQ occupancy: 41145538
L1D PREFETCHES PUSHED FROM L2C: 0
L1I TOTAL     ACCESS:    4090092  HIT:    4090092  MISS:          0  HIT %:        100  MISS %:          0   MPKI: 0
L1I LOAD      ACCESS:    4090092  HIT:    4090092  MISS:          0  HIT %:        100  MISS %:          0   MPKI: 0
L1I PREFETCH  REQUESTED:          0  ISSUED:          0  USEFUL:          0  USELESS:          0
L1I USEFUL LOAD PREFETCHES:          0 PREFETCH ISSUED TO LOWER LEVEL:          0  ACCURACY: -nan
L1I TIMELY PREFETCHES:          0 LATE PREFETCHES: 0 DROPPED PREFETCHES: 0
L1I PREFETCHES SAME FILL-ORIGIN LEVEL: 0 DIFFERENT FILL-ORIGIN LEVEL: 0
L1I AVERAGE MISS LATENCY: -nan cycles
L1I RQ	ACCESS:    5489920	FORWARD:          0	MERGED:    1399829	TO_CACHE:    4090091

BTB TOTAL     ACCESS:    7381233  HIT:    7359090  MISS:      22143  HIT %:       99.7  MISS %:   0.299991   MPKI: 0.88572
BTB BRANCH_DIRECT_JUMP	ACCESS:     954613  HIT:     954578  MISS:         35
BTB BRANCH_INDIRECT	ACCESS:          0  HIT:          0  MISS:          0
BTB BRANCH_CONDITIONAL	ACCESS:    6254608  HIT:    6254529  MISS:         79
BTB BRANCH_DIRECT_CALL	ACCESS:      79755  HIT:      79739  MISS:         16
BTB BRANCH_INDIRECT_CALL	ACCESS:       6250  HIT:       6242  MISS:          8
BTB BRANCH_RETURN	ACCESS:      86007  HIT:      64002  MISS:      22005
BTB BRANCH_OTHER ACCESS:          0  HIT:          0  MISS:          0

L2C TOTAL     ACCESS:    3992649  HIT:     511349  MISS:    3481300  HIT %:    12.8073  MISS %:    87.1927   MPKI: 139.252
L2C LOAD      ACCESS:    2713573  HIT:     410474  MISS:    2303099  HIT %:    15.1267  MISS %:    84.8733   MPKI: 92.124
L2C DATA LOAD MPKI: 92.124
L2C INSTRUCTION LOAD MPKI: 0
L2C RFO       ACCESS:       7830  HIT:        806  MISS:       7024  HIT %:    10.2937  MISS %:    89.7063   MPKI: 0.28096
L2C PREFETCH  ACCESS:    1162241  HIT:        160  MISS:    1162081  HIT %:  0.0137665  MISS %:    99.9862   MPKI: 46.4832
AGUS PREFETCH L1 MISS: 0
L2C DATA PREFETCH MPKI: 46.4832
L2C INSTRUCTION PREFETCH MPKI: 0
L2C WRITEBACK ACCESS:      79747  HIT:      79747  MISS:          0  HIT %:        100  MISS %:          0   MPKI: 0
L2C LOAD TRANSLATION ACCESS:      29258  HIT:      20162  MISS:       9096  HIT %:    68.9111  MISS %:    31.0889   MPKI: 0.36384
L2C PREFETCH  REQUESTED:          0  ISSUED:          0  USEFUL:        910  USELESS:    1161576
L2C USEFUL LOAD PREFETCHES:        910 PREFETCH ISSUED TO LOWER LEVEL:    1162081  ACCURACY: 0.0783078
L2C TIMELY PREFETCHES:        910 LATE PREFETCHES: 0 DROPPED PREFETCHES: 0
L2C PREFETCHES SAME FILL-ORIGIN LEVEL: 0 DIFFERENT FILL-ORIGIN LEVEL: 0
L2C AVERAGE MISS LATENCY: 110.056 cycles
L2C RQ	ACCESS:    2750664	FORWARD:          0	MERGED:          0	TO_CACHE:    2750661
L2C WQ	ACCESS:      79747	FORWARD:          3	MERGED:          0	TO_CACHE:      79747
L2C PQ	ACCESS:    1162241	FORWARD:          0	MERGED:          0	TO_CACHE:    1162241

L2C Instructions Evicting Data 0
L2C Translations Evicting Data 9069
L2C Data Evicting Data 3463154
L2C Instructions Evicting Instructions 0
L2C Translations Evicting Instructions 0
L2C Data Evicting Instructions 0
L2C Instructions Evicting Translations 0
L2C Translations Evicting Translations 27
L2C Data Evicting Translations 9050
L2C Dense regions hint from L2: 0
PSCL5 TOTAL     ACCESS:      29084  HIT:      29084  MISS:          0  HIT %:        100  MISS %:          0   MPKI: 0
PSCL5 LOAD TRANSLATION ACCESS:      29084  HIT:      29084  MISS:          0  HIT %:        100  MISS %:          0   MPKI: 0
PSCL5 PREFETCH  REQUESTED:          0  ISSUED:          0  USEFUL:          0  USELESS:          0
PSCL5 USEFUL LOAD PREFETCHES:          0 PREFETCH ISSUED TO LOWER LEVEL:          0  ACCURACY: -nan
PSCL5 TIMELY PREFETCHES:          0 LATE PREFETCHES: 0 DROPPED PREFETCHES: 0
PSCL5 PREFETCHES SAME FILL-ORIGIN LEVEL: 0 DIFFERENT FILL-ORIGIN LEVEL: 0

PSCL4 TOTAL     ACCESS:      29084  HIT:      29084  MISS:          0  HIT %:        100  MISS %:          0   MPKI: 0
PSCL4 LOAD TRANSLATION ACCESS:      29084  HIT:      29084  MISS:          0  HIT %:        100  MISS %:          0   MPKI: 0
PSCL4 PREFETCH  REQUESTED:          0  ISSUED:          0  USEFUL:          0  USELESS:          0
PSCL4 USEFUL LOAD PREFETCHES:          0 PREFETCH ISSUED TO LOWER LEVEL:          0  ACCURACY: -nan
PSCL4 TIMELY PREFETCHES:          0 LATE PREFETCHES: 0 DROPPED PREFETCHES: 0
PSCL4 PREFETCHES SAME FILL-ORIGIN LEVEL: 0 DIFFERENT FILL-ORIGIN LEVEL: 0

PSCL3 TOTAL     ACCESS:      29084  HIT:      29084  MISS:          0  HIT %:        100  MISS %:          0   MPKI: 0
PSCL3 LOAD TRANSLATION ACCESS:      29084  HIT:      29084  MISS:          0  HIT %:        100  MISS %:          0   MPKI: 0
PSCL3 PREFETCH  REQUESTED:          0  ISSUED:          0  USEFUL:          0  USELESS:          0
PSCL3 USEFUL LOAD PREFETCHES:          0 PREFETCH ISSUED TO LOWER LEVEL:          0  ACCURACY: -nan
PSCL3 TIMELY PREFETCHES:          0 LATE PREFETCHES: 0 DROPPED PREFETCHES: 0
PSCL3 PREFETCHES SAME FILL-ORIGIN LEVEL: 0 DIFFERENT FILL-ORIGIN LEVEL: 0

PSCL2 TOTAL     ACCESS:      29084  HIT:      28774  MISS:        310  HIT %:    98.9341  MISS %:    1.06588   MPKI: 0.0124
PSCL2 LOAD TRANSLATION ACCESS:      29084  HIT:      28774  MISS:        310  HIT %:    98.9341  MISS %:    1.06588   MPKI: 0.0124
PSCL2 PREFETCH  REQUESTED:          0  ISSUED:          0  USEFUL:          0  USELESS:          0
PSCL2 USEFUL LOAD PREFETCHES:          0 PREFETCH ISSUED TO LOWER LEVEL:          0  ACCURACY: -nan
PSCL2 TIMELY PREFETCHES:          0 LATE PREFETCHES: 0 DROPPED PREFETCHES: 0
PSCL2 PREFETCHES SAME FILL-ORIGIN LEVEL: 0 DIFFERENT FILL-ORIGIN LEVEL: 0

LLC TOTAL     ACCESS:    3556772  HIT:    1562344  MISS:    1994428  HIT %:    43.9259  MISS %:    56.0741   MPKI: 79.7771
LLC LOAD      ACCESS:    2303099  HIT:    1476094  MISS:     827005  HIT %:    64.0916  MISS %:    35.9084   MPKI: 33.0802
LLC RFO       ACCESS:       7024  HIT:       5867  MISS:       1157  HIT %:    83.5279  MISS %:    16.4721   MPKI: 0.04628
LLC PREFETCH  ACCESS:    1162081  HIT:       1035  MISS:    1161046  HIT %:  0.0890644  MISS %:    99.9109   MPKI: 46.4418
AGUS PREFETCH L1 MISS: 0
LLC WRITEBACK ACCESS:      75472  HIT:      75348  MISS:        124  HIT %:    99.8357  MISS %:   0.164299   MPKI: 0.00496
LLC LOAD TRANSLATION ACCESS:       9096  HIT:       4000  MISS:       5096  HIT %:    43.9754  MISS %:    56.0246   MPKI: 0.20384
LLC PREFETCH  REQUESTED:          0  ISSUED:          0  USEFUL:        603  USELESS:    1162240
LLC USEFUL LOAD PREFETCHES:        603 PREFETCH ISSUED TO LOWER LEVEL:    1161046  ACCURACY: 0.0519359
LLC TIMELY PREFETCHES:        603 LATE PREFETCHES: 0 DROPPED PREFETCHES: 0
LLC PREFETCHES SAME FILL-ORIGIN LEVEL: 0 DIFFERENT FILL-ORIGIN LEVEL: 0
LLC AVERAGE MISS LATENCY: 139.089 cycles
LLC RQ	ACCESS:    2319219	FORWARD:          0	MERGED:          0	TO_CACHE:    2319219
LLC WQ	ACCESS:      75472	FORWARD:          0	MERGED:          0	TO_CACHE:      75472
LLC PQ	ACCESS:    1162081	FORWARD:          0	MERGED:          0	TO_CACHE:    1162081

LLC Dense regions hint to LLC: 0

RAW hits: 62693
Loads Generated: 9014327
Loads sent to L1D: 8951634
Stores Generated: 459660
Stores sent to L1D: 459661
Major fault: 0 Minor fault: 44120
Allocated PAGES: 44120
CPU 0 L1D IP-based stride prefetcher final stats
Degree: 5

DRAM Statistics
 CHANNEL 0
 RQ ROW_BUFFER_HIT:     925135  ROW_BUFFER_MISS:    1069152
 DBUS_CONGESTED:        227
 WQ ROW_BUFFER_HIT:       9610  ROW_BUFFER_MISS:      30126  FULL:          0

 AVG_CONGESTED_CYCLE: 4
 All warmup complete: 2
Channel 0 Bank busy for read cycles: 0
Channel 0 Bank busy for write cycles: 0
Channel 0
Rank 0
0banks busy for read cycles: 55022660
0banks busy for write cycles: 15283
1banks busy for read cycles: 37118201
1banks busy for write cycles: 2806525
2banks busy for read cycles: 19338131
2banks busy for write cycles: 549054
3banks busy for read cycles: 11461903
3banks busy for write cycles: 242475
4banks busy for read cycles: 6791804
4banks busy for write cycles: 144574
5banks busy for read cycles: 5057880
5banks busy for write cycles: 109482
6banks busy for read cycles: 3537553
6banks busy for write cycles: 100236
7banks busy for read cycles: 1700301
7banks busy for write cycles: 123826
8banks busy for read cycles: 1360908
8banks busy for write cycles: 205481

CPU 0 Branch Prediction Accuracy: 96.3142% MPKI: 11.2642 Average ROB Occupancy at Mispredict: 45.6247
Branch types
NOT_BRANCH: 17359361 69.4374%
BRANCH_DIRECT_JUMP: 954613 3.81845%
BRANCH_INDIRECT: 0 0%
BRANCH_CONDITIONAL: 6513665 26.0547%
BRANCH_DIRECT_CALL: 79755 0.31902%
BRANCH_INDIRECT_CALL: 6250 0.025%
BRANCH_RETURN: 86007 0.344028%
BRANCH_OTHER: 0 0%

DRAM PAGES: 1048576
Allocated PAGES: 44120
