
*** ChampSim Multicore Out-of-Order Simulator ***

Warmup Instructions: 25000000
Simulation Instructions: 25000000
Number of CPUs: 1
LLC sets: 2048
LLC ways: 16
Off-chip DRAM Size: 4096 MB Channels: 1 Width: 64-bit Data Rate: 6400 MT/s
CPU 0 runs /home/yashas/CS683/pa2-lehra-do-prefetcher-wronganswersonly/traces/trace3.champsimtrace.xz
.xz
CPU 0 Bimodal branch predictor
BTB has LRU replacement policy
ITLB has LRU replacement policy
DTLB has LRU replacement policy
STLB has LRU replacement policy
L1I has LRU replacement policy
CPU 0 L1D Complex-Stride prefetcher
L1D has LRU replacement policy
L2C has LRU replacement policy
LLC has LRU replacement policy
Heartbeat CPU 0 instructions: 10000001 cycles: 3769177 heartbeat IPC: 2.6531 cumulative IPC: 2.6531 (Simulation time: 0 hr 0 min 20 sec) 
Heartbeat CPU 0 instructions: 20000000 cycles: 7510259 heartbeat IPC: 2.67302 cumulative IPC: 2.66302 (Simulation time: 0 hr 0 min 42 sec) 

Warmup complete CPU 0 instructions: 25000004 cycles: 9410942 (Simulation time: 0 hr 0 min 52 sec) 

Heartbeat CPU 0 instructions: 30000001 cycles: 43778064 heartbeat IPC: 0.275727 cumulative IPC: 0.145488 (Simulation time: 0 hr 1 min 17 sec) 
Heartbeat CPU 0 instructions: 40000001 cycles: 112203503 heartbeat IPC: 0.146144 cumulative IPC: 0.145925 (Simulation time: 0 hr 2 min 7 sec) 
Heartbeat CPU 0 instructions: 50000000 cycles: 184038259 heartbeat IPC: 0.139208 cumulative IPC: 0.143162 (Simulation time: 0 hr 2 min 58 sec) 
Finished CPU 0 instructions: 25000000 cycles: 174627319 cumulative IPC: 0.143162 (Simulation time: 0 hr 2 min 58 sec) 

ChampSim completed all CPUs

Region of Interest Statistics

CPU 0 cumulative IPC: 0.143162 instructions: 25000000 cycles: 174627319
ITLB TOTAL     ACCESS:    4072112  HIT:    4072112  MISS:          0  HIT %:        100  MISS %:          0   MPKI: 0
ITLB LOAD TRANSLATION ACCESS:    4072112  HIT:    4072112  MISS:          0  HIT %:        100  MISS %:          0   MPKI: 0
ITLB PREFETCH  REQUESTED:          0  ISSUED:          0  USEFUL:          0  USELESS:          0
ITLB USEFUL LOAD PREFETCHES:          0 PREFETCH ISSUED TO LOWER LEVEL:          0  ACCURACY: -nan
ITLB TIMELY PREFETCHES:          0 LATE PREFETCHES: 0 DROPPED PREFETCHES: 0
ITLB PREFETCHES SAME FILL-ORIGIN LEVEL: 0 DIFFERENT FILL-ORIGIN LEVEL: 0
ITLB AVERAGE MISS LATENCY: -nan cycles
ITLB RQ	ACCESS:    4123268	FORWARD:          0	MERGED:      51157	TO_CACHE:    4072111

DTLB TOTAL     ACCESS:    5244237  HIT:    3039990  MISS:    2204247  HIT %:    57.9682  MISS %:    42.0318   MPKI: 88.1699
DTLB LOAD TRANSLATION ACCESS:    5244237  HIT:    3039990  MISS:    2204247  HIT %:    57.9682  MISS %:    42.0318   MPKI: 88.1699
DTLB PREFETCH  REQUESTED:          0  ISSUED:          0  USEFUL:          0  USELESS:          0
DTLB USEFUL LOAD PREFETCHES:          0 PREFETCH ISSUED TO LOWER LEVEL:          0  ACCURACY: -nan
DTLB TIMELY PREFETCHES:          0 LATE PREFETCHES: 0 DROPPED PREFETCHES: 0
DTLB PREFETCHES SAME FILL-ORIGIN LEVEL: 0 DIFFERENT FILL-ORIGIN LEVEL: 0
DTLB AVERAGE MISS LATENCY: 11.0747 cycles
DTLB RQ	ACCESS:    5772393	FORWARD:          0	MERGED:     494245	TO_CACHE:    5278148

STLB TOTAL     ACCESS:    3334721  HIT:    3305639  MISS:      29082  HIT %:    99.1279  MISS %:   0.872097   MPKI: 1.16328
STLB LOAD TRANSLATION ACCESS:    2204247  HIT:    2175165  MISS:      29082  HIT %:    98.6806  MISS %:    1.31936   MPKI: 1.16328
STLB TRANSLATION FROM L1D PREFETCHER ACCESS:    1130474  HIT:    1130474  MISS:          0  HIT %:        100  MISS %:          0   MPKI: 0
STLB PREFETCH  REQUESTED:          0  ISSUED:          0  USEFUL:          0  USELESS:          0
STLB USEFUL LOAD PREFETCHES:          0 PREFETCH ISSUED TO LOWER LEVEL:          0  ACCURACY: -nan
STLB TIMELY PREFETCHES:          0 LATE PREFETCHES: 0 DROPPED PREFETCHES: 0
STLB PREFETCHES SAME FILL-ORIGIN LEVEL: 0 DIFFERENT FILL-ORIGIN LEVEL: 0
STLB AVERAGE MISS LATENCY: 139.732 cycles
STLB RQ	ACCESS:    5248981	FORWARD:          0	MERGED:    1914260	TO_CACHE:    3334721

STLB Hit, L1D data hit: 0
STLB Hit, L2C data hit: 0
STLB Hit, LLC data hit: 0
STLB Hit, LLC data miss: 0
STLB STLB hints to L2: 0
L1D TOTAL     ACCESS:    7854716  HIT:    2818532  MISS:    5036184  HIT %:    35.8833  MISS %:    64.1167   MPKI: 201.447
L1D LOAD      ACCESS:    5184707  HIT:    1776172  MISS:    3408535  HIT %:    34.2579  MISS %:    65.7421   MPKI: 136.341
L1D RFO       ACCESS:     423506  HIT:     415643  MISS:       7863  HIT %:    98.1434  MISS %:    1.85664   MPKI: 0.31452
L1D PREFETCH  ACCESS:    2246503  HIT:     626717  MISS:    1619786  HIT %:    27.8974  MISS %:    72.1026   MPKI: 64.7914
AGUS PREFETCH L1 MISS: 0
L1D PREFETCH  REQUESTED:    6745124  ISSUED:    6728016  USEFUL:     481736  USELESS:    1138026
L1D USEFUL LOAD PREFETCHES:     481736 PREFETCH ISSUED TO LOWER LEVEL:    1739178  ACCURACY: 27.6991
L1D TIMELY PREFETCHES:     481736 LATE PREFETCHES: 119392 DROPPED PREFETCHES: 0
L1D PREFETCHES SAME FILL-ORIGIN LEVEL: 1739178 DIFFERENT FILL-ORIGIN LEVEL: 0
L1D AVERAGE MISS LATENCY: 137.424 cycles
L1D RQ	ACCESS:    8951585	FORWARD:          0	MERGED:    3557437	TO_CACHE:    5329301
L1D WQ	ACCESS:     459661	FORWARD:      64848	MERGED:      16569	TO_CACHE:     443092
L1D PQ	ACCESS:    3683282	FORWARD:          0	MERGED:     638547	TO_CACHE:    3044734

L1D UNIQUE REGIONS ACCESSED: 0
L1D REGIONS CONFLICTS: 0
L1D Cross Page Prefetch Requests: 0
L1D Same Page Prefetch Requests: 8336659
L1D ROI Sum of L1D PQ occupancy: 64812184
L1D PREFETCHES PUSHED FROM L2C: 0
L1I TOTAL     ACCESS:    4123269  HIT:    4123269  MISS:          0  HIT %:        100  MISS %:          0   MPKI: 0
L1I LOAD      ACCESS:    4123269  HIT:    4123269  MISS:          0  HIT %:        100  MISS %:          0   MPKI: 0
L1I PREFETCH  REQUESTED:          0  ISSUED:          0  USEFUL:          0  USELESS:          0
L1I USEFUL LOAD PREFETCHES:          0 PREFETCH ISSUED TO LOWER LEVEL:          0  ACCURACY: -nan
L1I TIMELY PREFETCHES:          0 LATE PREFETCHES: 0 DROPPED PREFETCHES: 0
L1I PREFETCHES SAME FILL-ORIGIN LEVEL: 0 DIFFERENT FILL-ORIGIN LEVEL: 0
L1I AVERAGE MISS LATENCY: -nan cycles
L1I RQ	ACCESS:    5536165	FORWARD:          0	MERGED:    1412897	TO_CACHE:    4123268

BTB TOTAL     ACCESS:    7381233  HIT:    7359090  MISS:      22143  HIT %:       99.7  MISS %:   0.299991   MPKI: 0.88572
BTB BRANCH_DIRECT_JUMP	ACCESS:     954613  HIT:     954578  MISS:         35
BTB BRANCH_INDIRECT	ACCESS:          0  HIT:          0  MISS:          0
BTB BRANCH_CONDITIONAL	ACCESS:    6254608  HIT:    6254529  MISS:         79
BTB BRANCH_DIRECT_CALL	ACCESS:      79755  HIT:      79739  MISS:         16
BTB BRANCH_INDIRECT_CALL	ACCESS:       6250  HIT:       6242  MISS:          8
BTB BRANCH_RETURN	ACCESS:      86007  HIT:      64002  MISS:      22005
BTB BRANCH_OTHER ACCESS:          0  HIT:          0  MISS:          0

L2C TOTAL     ACCESS:    5145287  HIT:     540380  MISS:    4604907  HIT %:    10.5024  MISS %:    89.4976   MPKI: 184.196
L2C LOAD      ACCESS:    3289139  HIT:     348228  MISS:    2940911  HIT %:    10.5872  MISS %:    89.4128   MPKI: 117.636
L2C DATA LOAD MPKI: 117.636
L2C INSTRUCTION LOAD MPKI: 0
L2C RFO       ACCESS:       7863  HIT:        374  MISS:       7489  HIT %:    4.75645  MISS %:    95.2435   MPKI: 0.29956
L2C PREFETCH  ACCESS:    1739178  HIT:      91955  MISS:    1647223  HIT %:    5.28727  MISS %:    94.7127   MPKI: 65.8889
AGUS PREFETCH L1 MISS: 0
L2C DATA PREFETCH MPKI: 65.8889
L2C INSTRUCTION PREFETCH MPKI: 0
L2C WRITEBACK ACCESS:      79851  HIT:      79851  MISS:          0  HIT %:        100  MISS %:          0   MPKI: 0
L2C LOAD TRANSLATION ACCESS:      29256  HIT:      19972  MISS:       9284  HIT %:    68.2663  MISS %:    31.7337   MPKI: 0.37136
L2C PREFETCH  REQUESTED:          0  ISSUED:          0  USEFUL:      43369  USELESS:    1604266
L2C USEFUL LOAD PREFETCHES:      43369 PREFETCH ISSUED TO LOWER LEVEL:    1647223  ACCURACY: 2.63286
L2C TIMELY PREFETCHES:      43369 LATE PREFETCHES: 0 DROPPED PREFETCHES: 0
L2C PREFETCHES SAME FILL-ORIGIN LEVEL: 0 DIFFERENT FILL-ORIGIN LEVEL: 0
L2C AVERAGE MISS LATENCY: 133.794 cycles
L2C RQ	ACCESS:    3326264	FORWARD:          0	MERGED:          0	TO_CACHE:    3326260
L2C WQ	ACCESS:      79851	FORWARD:          4	MERGED:          0	TO_CACHE:      79851
L2C PQ	ACCESS:    1739178	FORWARD:          0	MERGED:          0	TO_CACHE:    1739178

L2C Instructions Evicting Data 0
L2C Translations Evicting Data 9267
L2C Data Evicting Data 4586373
L2C Instructions Evicting Instructions 0
L2C Translations Evicting Instructions 0
L2C Data Evicting Instructions 0
L2C Instructions Evicting Translations 0
L2C Translations Evicting Translations 17
L2C Data Evicting Translations 9250
L2C Dense regions hint from L2: 0
PSCL5 TOTAL     ACCESS:      29082  HIT:      29082  MISS:          0  HIT %:        100  MISS %:          0   MPKI: 0
PSCL5 LOAD TRANSLATION ACCESS:      29082  HIT:      29082  MISS:          0  HIT %:        100  MISS %:          0   MPKI: 0
PSCL5 PREFETCH  REQUESTED:          0  ISSUED:          0  USEFUL:          0  USELESS:          0
PSCL5 USEFUL LOAD PREFETCHES:          0 PREFETCH ISSUED TO LOWER LEVEL:          0  ACCURACY: -nan
PSCL5 TIMELY PREFETCHES:          0 LATE PREFETCHES: 0 DROPPED PREFETCHES: 0
PSCL5 PREFETCHES SAME FILL-ORIGIN LEVEL: 0 DIFFERENT FILL-ORIGIN LEVEL: 0

PSCL4 TOTAL     ACCESS:      29082  HIT:      29082  MISS:          0  HIT %:        100  MISS %:          0   MPKI: 0
PSCL4 LOAD TRANSLATION ACCESS:      29082  HIT:      29082  MISS:          0  HIT %:        100  MISS %:          0   MPKI: 0
PSCL4 PREFETCH  REQUESTED:          0  ISSUED:          0  USEFUL:          0  USELESS:          0
PSCL4 USEFUL LOAD PREFETCHES:          0 PREFETCH ISSUED TO LOWER LEVEL:          0  ACCURACY: -nan
PSCL4 TIMELY PREFETCHES:          0 LATE PREFETCHES: 0 DROPPED PREFETCHES: 0
PSCL4 PREFETCHES SAME FILL-ORIGIN LEVEL: 0 DIFFERENT FILL-ORIGIN LEVEL: 0

PSCL3 TOTAL     ACCESS:      29082  HIT:      29082  MISS:          0  HIT %:        100  MISS %:          0   MPKI: 0
PSCL3 LOAD TRANSLATION ACCESS:      29082  HIT:      29082  MISS:          0  HIT %:        100  MISS %:          0   MPKI: 0
PSCL3 PREFETCH  REQUESTED:          0  ISSUED:          0  USEFUL:          0  USELESS:          0
PSCL3 USEFUL LOAD PREFETCHES:          0 PREFETCH ISSUED TO LOWER LEVEL:          0  ACCURACY: -nan
PSCL3 TIMELY PREFETCHES:          0 LATE PREFETCHES: 0 DROPPED PREFETCHES: 0
PSCL3 PREFETCHES SAME FILL-ORIGIN LEVEL: 0 DIFFERENT FILL-ORIGIN LEVEL: 0

PSCL2 TOTAL     ACCESS:      29082  HIT:      28772  MISS:        310  HIT %:     98.934  MISS %:    1.06595   MPKI: 0.0124
PSCL2 LOAD TRANSLATION ACCESS:      29082  HIT:      28772  MISS:        310  HIT %:     98.934  MISS %:    1.06595   MPKI: 0.0124
PSCL2 PREFETCH  REQUESTED:          0  ISSUED:          0  USEFUL:          0  USELESS:          0
PSCL2 USEFUL LOAD PREFETCHES:          0 PREFETCH ISSUED TO LOWER LEVEL:          0  ACCURACY: -nan
PSCL2 TIMELY PREFETCHES:          0 LATE PREFETCHES: 0 DROPPED PREFETCHES: 0
PSCL2 PREFETCHES SAME FILL-ORIGIN LEVEL: 0 DIFFERENT FILL-ORIGIN LEVEL: 0

LLC TOTAL     ACCESS:    4682305  HIT:    2004385  MISS:    2677920  HIT %:    42.8077  MISS %:    57.1923   MPKI: 107.117
LLC LOAD      ACCESS:    2940910  HIT:    1515739  MISS:    1425171  HIT %:    51.5398  MISS %:    48.4602   MPKI: 57.0068
LLC RFO       ACCESS:       7489  HIT:       6115  MISS:       1374  HIT %:    81.6531  MISS %:    18.3469   MPKI: 0.05496
LLC PREFETCH  ACCESS:    1647223  HIT:     401504  MISS:    1245719  HIT %:    24.3746  MISS %:    75.6254   MPKI: 49.8288
AGUS PREFETCH L1 MISS: 0
LLC WRITEBACK ACCESS:      77399  HIT:      77353  MISS:         46  HIT %:    99.9406  MISS %:  0.0594323   MPKI: 0.00184
LLC LOAD TRANSLATION ACCESS:       9284  HIT:       3674  MISS:       5610  HIT %:    39.5735  MISS %:    60.4265   MPKI: 0.2244
LLC PREFETCH  REQUESTED:          0  ISSUED:          0  USEFUL:      51133  USELESS:    1197195
LLC USEFUL LOAD PREFETCHES:      51133 PREFETCH ISSUED TO LOWER LEVEL:    1245719  ACCURACY: 4.1047
LLC TIMELY PREFETCHES:      51133 LATE PREFETCHES: 0 DROPPED PREFETCHES: 0
LLC PREFETCHES SAME FILL-ORIGIN LEVEL: 0 DIFFERENT FILL-ORIGIN LEVEL: 0
LLC AVERAGE MISS LATENCY: 177.82 cycles
LLC RQ	ACCESS:    2957686	FORWARD:          0	MERGED:          0	TO_CACHE:    2957685
LLC WQ	ACCESS:      77399	FORWARD:          1	MERGED:          0	TO_CACHE:      77399
LLC PQ	ACCESS:    1647223	FORWARD:          0	MERGED:          0	TO_CACHE:    1647223

LLC Dense regions hint to LLC: 0

RAW hits: 62740
Loads Generated: 9014325
Loads sent to L1D: 8951585
Stores Generated: 459660
Stores sent to L1D: 459661
Major fault: 0 Minor fault: 44120
Allocated PAGES: 44120
CPU 0 L1D complex stride prefetcher final stats
Degree: 5

DRAM Statistics
 CHANNEL 0
 RQ ROW_BUFFER_HIT:     733970  ROW_BUFFER_MISS:    1943879
 DBUS_CONGESTED:        216
 WQ ROW_BUFFER_HIT:      10826  ROW_BUFFER_MISS:      30008  FULL:          0

 AVG_CONGESTED_CYCLE: 4
 All warmup complete: 2
Channel 0 Bank busy for read cycles: 0
Channel 0 Bank busy for write cycles: 0
Channel 0
Rank 0
0banks busy for read cycles: 52242786
0banks busy for write cycles: 13765
1banks busy for read cycles: 41672149
1banks busy for write cycles: 2814320
2banks busy for read cycles: 23971761
2banks busy for write cycles: 605211
3banks busy for read cycles: 16353533
3banks busy for write cycles: 234302
4banks busy for read cycles: 12345146
4banks busy for write cycles: 146736
5banks busy for read cycles: 9577883
5banks busy for write cycles: 107778
6banks busy for read cycles: 7393643
6banks busy for write cycles: 101483
7banks busy for read cycles: 4655462
7banks busy for write cycles: 145169
8banks busy for read cycles: 1930186
8banks busy for write cycles: 316007

CPU 0 Branch Prediction Accuracy: 96.3142% MPKI: 11.2642 Average ROB Occupancy at Mispredict: 48.1734
Branch types
NOT_BRANCH: 17359361 69.4374%
BRANCH_DIRECT_JUMP: 954613 3.81845%
BRANCH_INDIRECT: 0 0%
BRANCH_CONDITIONAL: 6513665 26.0547%
BRANCH_DIRECT_CALL: 79755 0.31902%
BRANCH_INDIRECT_CALL: 6250 0.025%
BRANCH_RETURN: 86007 0.344028%
BRANCH_OTHER: 0 0%

DRAM PAGES: 1048576
Allocated PAGES: 44120
