
*** ChampSim Multicore Out-of-Order Simulator ***

Warmup Instructions: 25000000
Simulation Instructions: 25000000
Number of CPUs: 1
LLC sets: 2048
LLC ways: 16
Off-chip DRAM Size: 4096 MB Channels: 1 Width: 64-bit Data Rate: 6400 MT/s
CPU 0 runs /home/yashas/CS683/pa2-lehra-do-prefetcher-wronganswersonly/traces/trace3.champsimtrace.xz
.xz
CPU 0 Bimodal branch predictor
BTB has LRU replacement policy
ITLB has LRU replacement policy
DTLB has LRU replacement policy
STLB has LRU replacement policy
L1I has LRU replacement policy
CPU 0 L1D Complex-Stride prefetcher
L1D has LRU replacement policy
L2C has LRU replacement policy
LLC has LRU replacement policy
Heartbeat CPU 0 instructions: 10000001 cycles: 3757580 heartbeat IPC: 2.66129 cumulative IPC: 2.66129 (Simulation time: 0 hr 0 min 20 sec) 
Heartbeat CPU 0 instructions: 20000000 cycles: 7486270 heartbeat IPC: 2.68191 cumulative IPC: 2.67156 (Simulation time: 0 hr 0 min 40 sec) 

Warmup complete CPU 0 instructions: 25000004 cycles: 9381017 (Simulation time: 0 hr 0 min 50 sec) 

Heartbeat CPU 0 instructions: 30000001 cycles: 39622943 heartbeat IPC: 0.311171 cumulative IPC: 0.165333 (Simulation time: 0 hr 1 min 12 sec) 
Heartbeat CPU 0 instructions: 40000001 cycles: 100439076 heartbeat IPC: 0.16443 cumulative IPC: 0.16473 (Simulation time: 0 hr 1 min 56 sec) 
Heartbeat CPU 0 instructions: 50000000 cycles: 164487738 heartbeat IPC: 0.156131 cumulative IPC: 0.161179 (Simulation time: 0 hr 2 min 41 sec) 
Finished CPU 0 instructions: 25000000 cycles: 155106723 cumulative IPC: 0.161179 (Simulation time: 0 hr 2 min 41 sec) 

ChampSim completed all CPUs

Region of Interest Statistics

CPU 0 cumulative IPC: 0.161179 instructions: 25000000 cycles: 155106723
ITLB TOTAL     ACCESS:    4048699  HIT:    4048699  MISS:          0  HIT %:        100  MISS %:          0   MPKI: 0
ITLB LOAD TRANSLATION ACCESS:    4048699  HIT:    4048699  MISS:          0  HIT %:        100  MISS %:          0   MPKI: 0
ITLB PREFETCH  REQUESTED:          0  ISSUED:          0  USEFUL:          0  USELESS:          0
ITLB USEFUL LOAD PREFETCHES:          0 PREFETCH ISSUED TO LOWER LEVEL:          0  ACCURACY: -nan
ITLB TIMELY PREFETCHES:          0 LATE PREFETCHES: 0 DROPPED PREFETCHES: 0
ITLB PREFETCHES SAME FILL-ORIGIN LEVEL: 0 DIFFERENT FILL-ORIGIN LEVEL: 0
ITLB AVERAGE MISS LATENCY: -nan cycles
ITLB RQ	ACCESS:    4099861	FORWARD:          0	MERGED:      51163	TO_CACHE:    4048698

DTLB TOTAL     ACCESS:    5229949  HIT:    3026046  MISS:    2203903  HIT %:      57.86  MISS %:      42.14   MPKI: 88.1561
DTLB LOAD TRANSLATION ACCESS:    5229949  HIT:    3026046  MISS:    2203903  HIT %:      57.86  MISS %:      42.14   MPKI: 88.1561
DTLB PREFETCH  REQUESTED:          0  ISSUED:          0  USEFUL:          0  USELESS:          0
DTLB USEFUL LOAD PREFETCHES:          0 PREFETCH ISSUED TO LOWER LEVEL:          0  ACCURACY: -nan
DTLB TIMELY PREFETCHES:          0 LATE PREFETCHES: 0 DROPPED PREFETCHES: 0
DTLB PREFETCHES SAME FILL-ORIGIN LEVEL: 0 DIFFERENT FILL-ORIGIN LEVEL: 0
DTLB AVERAGE MISS LATENCY: 11.1321 cycles
DTLB RQ	ACCESS:    5759462	FORWARD:          0	MERGED:     495091	TO_CACHE:    5264371

STLB TOTAL     ACCESS:    2836818  HIT:    2807735  MISS:      29083  HIT %:    98.9748  MISS %:     1.0252   MPKI: 1.16332
STLB LOAD TRANSLATION ACCESS:    2203903  HIT:    2174820  MISS:      29083  HIT %:    98.6804  MISS %:    1.31961   MPKI: 1.16332
STLB TRANSLATION FROM L1D PREFETCHER ACCESS:     632915  HIT:     632915  MISS:          0  HIT %:        100  MISS %:          0   MPKI: 0
STLB PREFETCH  REQUESTED:          0  ISSUED:          0  USEFUL:          0  USELESS:          0
STLB USEFUL LOAD PREFETCHES:          0 PREFETCH ISSUED TO LOWER LEVEL:          0  ACCURACY: -nan
STLB TIMELY PREFETCHES:          0 LATE PREFETCHES: 0 DROPPED PREFETCHES: 0
STLB PREFETCHES SAME FILL-ORIGIN LEVEL: 0 DIFFERENT FILL-ORIGIN LEVEL: 0
STLB AVERAGE MISS LATENCY: 135.41 cycles
STLB RQ	ACCESS:    5138677	FORWARD:          0	MERGED:    2301859	TO_CACHE:    2836818

STLB Hit, L1D data hit: 0
STLB Hit, L2C data hit: 0
STLB Hit, LLC data hit: 0
STLB Hit, LLC data miss: 0
STLB STLB hints to L2: 0
L1D TOTAL     ACCESS:    7307248  HIT:    3148754  MISS:    4158494  HIT %:    43.0908  MISS %:    56.9092   MPKI: 166.34
L1D LOAD      ACCESS:    5222286  HIT:    2000949  MISS:    3221337  HIT %:    38.3156  MISS %:    61.6844   MPKI: 128.853
L1D RFO       ACCESS:     423828  HIT:     415956  MISS:       7872  HIT %:    98.1426  MISS %:    1.85736   MPKI: 0.31488
L1D PREFETCH  ACCESS:    1661134  HIT:     731849  MISS:     929285  HIT %:    44.0572  MISS %:    55.9428   MPKI: 37.1714
AGUS PREFETCH L1 MISS: 0
L1D PREFETCH  REQUESTED:    6565336  ISSUED:    6565266  USEFUL:     657419  USELESS:     271843
L1D USEFUL LOAD PREFETCHES:     657419 PREFETCH ISSUED TO LOWER LEVEL:    1198423  ACCURACY: 54.857
L1D TIMELY PREFETCHES:     657419 LATE PREFETCHES: 269138 DROPPED PREFETCHES: 0
L1D PREFETCHES SAME FILL-ORIGIN LEVEL: 1198423 DIFFERENT FILL-ORIGIN LEVEL: 0
L1D AVERAGE MISS LATENCY: 122.763 cycles
L1D RQ	ACCESS:    8951585	FORWARD:          0	MERGED:    3570415	TO_CACHE:    5316337
L1D WQ	ACCESS:     459661	FORWARD:      64833	MERGED:      16536	TO_CACHE:     443125
L1D PQ	ACCESS:    3630492	FORWARD:          0	MERGED:     695718	TO_CACHE:    2934774

L1D UNIQUE REGIONS ACCESSED: 0
L1D REGIONS CONFLICTS: 0
L1D Cross Page Prefetch Requests: 0
L1D Same Page Prefetch Requests: 7786570
L1D ROI Sum of L1D PQ occupancy: 41224684
L1D PREFETCHES PUSHED FROM L2C: 0
L1I TOTAL     ACCESS:    4099862  HIT:    4099862  MISS:          0  HIT %:        100  MISS %:          0   MPKI: 0
L1I LOAD      ACCESS:    4099862  HIT:    4099862  MISS:          0  HIT %:        100  MISS %:          0   MPKI: 0
L1I PREFETCH  REQUESTED:          0  ISSUED:          0  USEFUL:          0  USELESS:          0
L1I USEFUL LOAD PREFETCHES:          0 PREFETCH ISSUED TO LOWER LEVEL:          0  ACCURACY: -nan
L1I TIMELY PREFETCHES:          0 LATE PREFETCHES: 0 DROPPED PREFETCHES: 0
L1I PREFETCHES SAME FILL-ORIGIN LEVEL: 0 DIFFERENT FILL-ORIGIN LEVEL: 0
L1I AVERAGE MISS LATENCY: -nan cycles
L1I RQ	ACCESS:    5504487	FORWARD:          0	MERGED:    1404626	TO_CACHE:    4099861

BTB TOTAL     ACCESS:    7381233  HIT:    7359090  MISS:      22143  HIT %:       99.7  MISS %:   0.299991   MPKI: 0.88572
BTB BRANCH_DIRECT_JUMP	ACCESS:     954613  HIT:     954578  MISS:         35
BTB BRANCH_INDIRECT	ACCESS:          0  HIT:          0  MISS:          0
BTB BRANCH_CONDITIONAL	ACCESS:    6254608  HIT:    6254529  MISS:         79
BTB BRANCH_DIRECT_CALL	ACCESS:      79755  HIT:      79739  MISS:         16
BTB BRANCH_INDIRECT_CALL	ACCESS:       6250  HIT:       6242  MISS:          8
BTB BRANCH_RETURN	ACCESS:      86007  HIT:      64002  MISS:      22005
BTB BRANCH_OTHER ACCESS:          0  HIT:          0  MISS:          0

L2C TOTAL     ACCESS:    4267532  HIT:     502249  MISS:    3765283  HIT %:    11.7691  MISS %:    88.2309   MPKI: 150.611
L2C LOAD      ACCESS:    2952195  HIT:     382865  MISS:    2569330  HIT %:    12.9688  MISS %:    87.0312   MPKI: 102.773
L2C DATA LOAD MPKI: 102.773
L2C INSTRUCTION LOAD MPKI: 0
L2C RFO       ACCESS:       7872  HIT:        619  MISS:       7253  HIT %:    7.86331  MISS %:    92.1367   MPKI: 0.29012
L2C PREFETCH  ACCESS:    1198423  HIT:      18887  MISS:    1179536  HIT %:    1.57599  MISS %:     98.424   MPKI: 47.1814
AGUS PREFETCH L1 MISS: 0
L2C DATA PREFETCH MPKI: 47.1814
L2C INSTRUCTION PREFETCH MPKI: 0
L2C WRITEBACK ACCESS:      79785  HIT:      79785  MISS:          0  HIT %:        100  MISS %:          0   MPKI: 0
L2C LOAD TRANSLATION ACCESS:      29257  HIT:      20093  MISS:       9164  HIT %:    68.6776  MISS %:    31.3224   MPKI: 0.36656
L2C PREFETCH  REQUESTED:          0  ISSUED:          0  USEFUL:      11877  USELESS:    1167949
L2C USEFUL LOAD PREFETCHES:      11877 PREFETCH ISSUED TO LOWER LEVEL:    1179536  ACCURACY: 1.00692
L2C TIMELY PREFETCHES:      11877 LATE PREFETCHES: 0 DROPPED PREFETCHES: 0
L2C PREFETCHES SAME FILL-ORIGIN LEVEL: 0 DIFFERENT FILL-ORIGIN LEVEL: 0
L2C AVERAGE MISS LATENCY: 118.882 cycles
L2C RQ	ACCESS:    2989328	FORWARD:          0	MERGED:          0	TO_CACHE:    2989324
L2C WQ	ACCESS:      79785	FORWARD:          4	MERGED:          0	TO_CACHE:      79785
L2C PQ	ACCESS:    1198423	FORWARD:          0	MERGED:          0	TO_CACHE:    1198423

L2C Instructions Evicting Data 0
L2C Translations Evicting Data 9145
L2C Data Evicting Data 3746992
L2C Instructions Evicting Instructions 0
L2C Translations Evicting Instructions 0
L2C Data Evicting Instructions 0
L2C Instructions Evicting Translations 0
L2C Translations Evicting Translations 19
L2C Data Evicting Translations 9127
L2C Dense regions hint from L2: 0
PSCL5 TOTAL     ACCESS:      29083  HIT:      29083  MISS:          0  HIT %:        100  MISS %:          0   MPKI: 0
PSCL5 LOAD TRANSLATION ACCESS:      29083  HIT:      29083  MISS:          0  HIT %:        100  MISS %:          0   MPKI: 0
PSCL5 PREFETCH  REQUESTED:          0  ISSUED:          0  USEFUL:          0  USELESS:          0
PSCL5 USEFUL LOAD PREFETCHES:          0 PREFETCH ISSUED TO LOWER LEVEL:          0  ACCURACY: -nan
PSCL5 TIMELY PREFETCHES:          0 LATE PREFETCHES: 0 DROPPED PREFETCHES: 0
PSCL5 PREFETCHES SAME FILL-ORIGIN LEVEL: 0 DIFFERENT FILL-ORIGIN LEVEL: 0

PSCL4 TOTAL     ACCESS:      29083  HIT:      29083  MISS:          0  HIT %:        100  MISS %:          0   MPKI: 0
PSCL4 LOAD TRANSLATION ACCESS:      29083  HIT:      29083  MISS:          0  HIT %:        100  MISS %:          0   MPKI: 0
PSCL4 PREFETCH  REQUESTED:          0  ISSUED:          0  USEFUL:          0  USELESS:          0
PSCL4 USEFUL LOAD PREFETCHES:          0 PREFETCH ISSUED TO LOWER LEVEL:          0  ACCURACY: -nan
PSCL4 TIMELY PREFETCHES:          0 LATE PREFETCHES: 0 DROPPED PREFETCHES: 0
PSCL4 PREFETCHES SAME FILL-ORIGIN LEVEL: 0 DIFFERENT FILL-ORIGIN LEVEL: 0

PSCL3 TOTAL     ACCESS:      29083  HIT:      29083  MISS:          0  HIT %:        100  MISS %:          0   MPKI: 0
PSCL3 LOAD TRANSLATION ACCESS:      29083  HIT:      29083  MISS:          0  HIT %:        100  MISS %:          0   MPKI: 0
PSCL3 PREFETCH  REQUESTED:          0  ISSUED:          0  USEFUL:          0  USELESS:          0
PSCL3 USEFUL LOAD PREFETCHES:          0 PREFETCH ISSUED TO LOWER LEVEL:          0  ACCURACY: -nan
PSCL3 TIMELY PREFETCHES:          0 LATE PREFETCHES: 0 DROPPED PREFETCHES: 0
PSCL3 PREFETCHES SAME FILL-ORIGIN LEVEL: 0 DIFFERENT FILL-ORIGIN LEVEL: 0

PSCL2 TOTAL     ACCESS:      29083  HIT:      28773  MISS:        310  HIT %:    98.9341  MISS %:    1.06591   MPKI: 0.0124
PSCL2 LOAD TRANSLATION ACCESS:      29083  HIT:      28773  MISS:        310  HIT %:    98.9341  MISS %:    1.06591   MPKI: 0.0124
PSCL2 PREFETCH  REQUESTED:          0  ISSUED:          0  USEFUL:          0  USELESS:          0
PSCL2 USEFUL LOAD PREFETCHES:          0 PREFETCH ISSUED TO LOWER LEVEL:          0  ACCURACY: -nan
PSCL2 TIMELY PREFETCHES:          0 LATE PREFETCHES: 0 DROPPED PREFETCHES: 0
PSCL2 PREFETCHES SAME FILL-ORIGIN LEVEL: 0 DIFFERENT FILL-ORIGIN LEVEL: 0

LLC TOTAL     ACCESS:    3841581  HIT:    1654484  MISS:    2187097  HIT %:    43.0678  MISS %:    56.9322   MPKI: 87.4839
LLC LOAD      ACCESS:    2569330  HIT:    1496709  MISS:    1072621  HIT %:    58.2529  MISS %:    41.7471   MPKI: 42.9048
LLC RFO       ACCESS:       7253  HIT:       6069  MISS:       1184  HIT %:    83.6757  MISS %:    16.3243   MPKI: 0.04736
LLC PREFETCH  ACCESS:    1179536  HIT:      71581  MISS:    1107955  HIT %:    6.06857  MISS %:    93.9314   MPKI: 44.3182
AGUS PREFETCH L1 MISS: 0
LLC WRITEBACK ACCESS:      76298  HIT:      76209  MISS:         89  HIT %:    99.8834  MISS %:   0.116648   MPKI: 0.00356
LLC LOAD TRANSLATION ACCESS:       9164  HIT:       3916  MISS:       5248  HIT %:    42.7324  MISS %:    57.2676   MPKI: 0.20992
LLC PREFETCH  REQUESTED:          0  ISSUED:          0  USEFUL:      16175  USELESS:    1092739
LLC USEFUL LOAD PREFETCHES:      16175 PREFETCH ISSUED TO LOWER LEVEL:    1107955  ACCURACY: 1.4599
LLC TIMELY PREFETCHES:      16175 LATE PREFETCHES: 0 DROPPED PREFETCHES: 0
LLC PREFETCHES SAME FILL-ORIGIN LEVEL: 0 DIFFERENT FILL-ORIGIN LEVEL: 0
LLC AVERAGE MISS LATENCY: 152.349 cycles
LLC RQ	ACCESS:    2585747	FORWARD:          0	MERGED:          0	TO_CACHE:    2585747
LLC WQ	ACCESS:      76298	FORWARD:          0	MERGED:          0	TO_CACHE:      76298
LLC PQ	ACCESS:    1179536	FORWARD:          0	MERGED:          0	TO_CACHE:    1179536

LLC Dense regions hint to LLC: 0

RAW hits: 62742
Loads Generated: 9014327
Loads sent to L1D: 8951585
Stores Generated: 459660
Stores sent to L1D: 459661
Major fault: 0 Minor fault: 44120
Allocated PAGES: 44120
CPU 0 L1D complex stride prefetcher final stats
Degree: 5

DRAM Statistics
 CHANNEL 0
 RQ ROW_BUFFER_HIT:     837131  ROW_BUFFER_MISS:    1349856
 DBUS_CONGESTED:        253
 WQ ROW_BUFFER_HIT:       9720  ROW_BUFFER_MISS:      30303  FULL:          0

 AVG_CONGESTED_CYCLE: 4
 All warmup complete: 2
Channel 0 Bank busy for read cycles: 0
Channel 0 Bank busy for write cycles: 0
Channel 0
Rank 0
0banks busy for read cycles: 54855690
0banks busy for write cycles: 14837
1banks busy for read cycles: 38980526
1banks busy for write cycles: 2779613
2banks busy for read cycles: 19933410
2banks busy for write cycles: 587839
3banks busy for read cycles: 12601669
3banks busy for write cycles: 238720
4banks busy for read cycles: 9125116
4banks busy for write cycles: 142193
5banks busy for read cycles: 6566050
5banks busy for write cycles: 108669
6banks busy for read cycles: 4401591
6banks busy for write cycles: 111722
7banks busy for read cycles: 2512482
7banks busy for write cycles: 125901
8banks busy for read cycles: 1797421
8banks busy for write cycles: 223275

CPU 0 Branch Prediction Accuracy: 96.3142% MPKI: 11.2642 Average ROB Occupancy at Mispredict: 46.5815
Branch types
NOT_BRANCH: 17359361 69.4374%
BRANCH_DIRECT_JUMP: 954613 3.81845%
BRANCH_INDIRECT: 0 0%
BRANCH_CONDITIONAL: 6513665 26.0547%
BRANCH_DIRECT_CALL: 79755 0.31902%
BRANCH_INDIRECT_CALL: 6250 0.025%
BRANCH_RETURN: 86007 0.344028%
BRANCH_OTHER: 0 0%

DRAM PAGES: 1048576
Allocated PAGES: 44120
