
*** ChampSim Multicore Out-of-Order Simulator ***

Warmup Instructions: 25000000
Simulation Instructions: 25000000
Number of CPUs: 1
LLC sets: 2048
LLC ways: 16
Off-chip DRAM Size: 4096 MB Channels: 1 Width: 64-bit Data Rate: 6400 MT/s
CPU 0 runs /home/yashas/CS683/pa2-lehra-do-prefetcher-wronganswersonly/traces/trace1.champsimtrace.xz
.xz
CPU 0 Bimodal branch predictor
BTB has LRU replacement policy
ITLB has LRU replacement policy
DTLB has LRU replacement policy
CPU 0 STLB arbitrary stride prefetcher
STLB has LRU replacement policy
L1I has LRU replacement policy
CPU 0 L1D Optimized prefetcher
L1D has LRU replacement policy
L2C has LRU replacement policy
LLC has LRU replacement policy
Heartbeat CPU 0 instructions: 10000003 cycles: 2826731 heartbeat IPC: 3.53766 cumulative IPC: 3.53766 (Simulation time: 0 hr 0 min 16 sec) 
Heartbeat CPU 0 instructions: 20000000 cycles: 5641419 heartbeat IPC: 3.55279 cumulative IPC: 3.54521 (Simulation time: 0 hr 0 min 31 sec) 

Warmup complete CPU 0 instructions: 25000004 cycles: 7053523 (Simulation time: 0 hr 0 min 39 sec) 

IP_STRIDE Accuracy is 21.2121 
Switching to CPLX L1D prefetcher
Heartbeat CPU 0 instructions: 30000002 cycles: 23851276 heartbeat IPC: 0.549153 cumulative IPC: 0.297659 (Simulation time: 0 hr 1 min 0 sec) 
CPLX Accuracy is 9.375 
Switching to NL L1D prefetcher
NL Accuracy is 80 
Prefetcher set to NL
Heartbeat CPU 0 instructions: 40000002 cycles: 56911326 heartbeat IPC: 0.30248 cumulative IPC: 0.300856 (Simulation time: 0 hr 1 min 47 sec) 
Heartbeat CPU 0 instructions: 50000000 cycles: 81488841 heartbeat IPC: 0.406876 cumulative IPC: 0.335862 (Simulation time: 0 hr 2 min 32 sec) 
Finished CPU 0 instructions: 25000000 cycles: 74435319 cumulative IPC: 0.335862 (Simulation time: 0 hr 2 min 32 sec) 

ChampSim completed all CPUs

Region of Interest Statistics

CPU 0 cumulative IPC: 0.335862 instructions: 25000000 cycles: 74435319
ITLB TOTAL     ACCESS:    4466646  HIT:    4466646  MISS:          0  HIT %:        100  MISS %:          0   MPKI: 0
ITLB LOAD TRANSLATION ACCESS:    4466646  HIT:    4466646  MISS:          0  HIT %:        100  MISS %:          0   MPKI: 0
ITLB PREFETCH  REQUESTED:          0  ISSUED:          0  USEFUL:          0  USELESS:          0
ITLB USEFUL LOAD PREFETCHES:          0 PREFETCH ISSUED TO LOWER LEVEL:          0  ACCURACY: -nan
ITLB TIMELY PREFETCHES:          0 LATE PREFETCHES: 0 DROPPED PREFETCHES: 0
ITLB PREFETCHES SAME FILL-ORIGIN LEVEL: 0 DIFFERENT FILL-ORIGIN LEVEL: 0
ITLB AVERAGE MISS LATENCY: -nan cycles
ITLB RQ	ACCESS:    4811346	FORWARD:          0	MERGED:     344701	TO_CACHE:    4466645

DTLB TOTAL     ACCESS:    3751083  HIT:    3088359  MISS:     662724  HIT %:    82.3325  MISS %:    17.6675   MPKI: 26.509
DTLB LOAD TRANSLATION ACCESS:    3751083  HIT:    3088359  MISS:     662724  HIT %:    82.3325  MISS %:    17.6675   MPKI: 26.509
DTLB PREFETCH  REQUESTED:          0  ISSUED:          0  USEFUL:          0  USELESS:          0
DTLB USEFUL LOAD PREFETCHES:          0 PREFETCH ISSUED TO LOWER LEVEL:          0  ACCURACY: -nan
DTLB TIMELY PREFETCHES:          0 LATE PREFETCHES: 0 DROPPED PREFETCHES: 0
DTLB PREFETCHES SAME FILL-ORIGIN LEVEL: 0 DIFFERENT FILL-ORIGIN LEVEL: 0
DTLB AVERAGE MISS LATENCY: 72.542 cycles
DTLB RQ	ACCESS:    4347381	FORWARD:          0	MERGED:     590081	TO_CACHE:    3757300

STLB TOTAL     ACCESS:    2724953  HIT:    2019315  MISS:     705638  HIT %:    74.1046  MISS %:    25.8954   MPKI: 28.2255
STLB LOAD TRANSLATION ACCESS:     662724  HIT:     102974  MISS:     559750  HIT %:     15.538  MISS %:     84.462   MPKI: 22.39
STLB PREFETCH TRANSLATION ACCESS:     499192  HIT:     353431  MISS:     145761  HIT %:    70.8006  MISS %:    29.1994   MPKI: 5.83044
STLB TRANSLATION FROM L1D PREFETCHER ACCESS:    1563037  HIT:    1562910  MISS:        127  HIT %:    99.9919  MISS %: 0.00812521   MPKI: 0.00508
STLB PREFETCH  REQUESTED:     538032  ISSUED:     536880  USEFUL:       2932  USELESS:     143427
STLB USEFUL LOAD PREFETCHES:       2932 PREFETCH ISSUED TO LOWER LEVEL:     179062  ACCURACY: 1.63742
STLB TIMELY PREFETCHES:       2932 LATE PREFETCHES: 9 DROPPED PREFETCHES: 33291
STLB PREFETCHES SAME FILL-ORIGIN LEVEL: 179062 DIFFERENT FILL-ORIGIN LEVEL: 0
STLB AVERAGE MISS LATENCY: 125.221 cycles
STLB RQ	ACCESS:    8030649	FORWARD:          0	MERGED:    5804884	TO_CACHE:    2225765
STLB PQ	ACCESS:     536880	FORWARD:          0	MERGED:       1098	TO_CACHE:     535782

STLB Hit, L1D data hit: 0
STLB Hit, L2C data hit: 0
STLB Hit, LLC data hit: 0
STLB Hit, LLC data miss: 0
STLB STLB hints to L2: 0
L1D TOTAL     ACCESS:   11380535  HIT:    7831926  MISS:    3548609  HIT %:    68.8186  MISS %:    31.1814   MPKI: 141.944
L1D LOAD      ACCESS:    3218169  HIT:    2069511  MISS:    1148658  HIT %:    64.3071  MISS %:    35.6929   MPKI: 45.9463
L1D RFO       ACCESS:    1108660  HIT:    1039301  MISS:      69359  HIT %:    93.7439  MISS %:    6.25611   MPKI: 2.77436
L1D PREFETCH  ACCESS:    7053706  HIT:    4723114  MISS:    2330592  HIT %:    66.9593  MISS %:    33.0407   MPKI: 93.2237
AGUS PREFETCH L1 MISS: 0
L1D PREFETCH  REQUESTED:   17175129  ISSUED:   17124768  USEFUL:      12218  USELESS:    2317794
L1D USEFUL LOAD PREFETCHES:      12218 PREFETCH ISSUED TO LOWER LEVEL:    2333894  ACCURACY: 0.523503
L1D TIMELY PREFETCHES:      12218 LATE PREFETCHES: 3299 DROPPED PREFETCHES: 0
L1D PREFETCHES SAME FILL-ORIGIN LEVEL: 2333894 DIFFERENT FILL-ORIGIN LEVEL: 0
L1D AVERAGE MISS LATENCY: 82.0718 cycles
L1D RQ	ACCESS:    6157479	FORWARD:          0	MERGED:    2858278	TO_CACHE:    3238718
L1D WQ	ACCESS:    1108674	FORWARD:      60483	MERGED:         11	TO_CACHE:    1108663
L1D PQ	ACCESS:    9756845	FORWARD:          0	MERGED:    2388922	TO_CACHE:    7367923

L1D UNIQUE REGIONS ACCESSED: 0
L1D REGIONS CONFLICTS: 0
L1D Cross Page Prefetch Requests: 0
L1D Same Page Prefetch Requests: 9756845
L1D ROI Sum of L1D PQ occupancy: 103170841
L1D PREFETCHES PUSHED FROM L2C: 0
L1I TOTAL     ACCESS:    4811347  HIT:    4811347  MISS:          0  HIT %:        100  MISS %:          0   MPKI: 0
L1I LOAD      ACCESS:    4811347  HIT:    4811347  MISS:          0  HIT %:        100  MISS %:          0   MPKI: 0
L1I PREFETCH  REQUESTED:          0  ISSUED:          0  USEFUL:          0  USELESS:          0
L1I USEFUL LOAD PREFETCHES:          0 PREFETCH ISSUED TO LOWER LEVEL:          0  ACCURACY: -nan
L1I TIMELY PREFETCHES:          0 LATE PREFETCHES: 0 DROPPED PREFETCHES: 0
L1I PREFETCHES SAME FILL-ORIGIN LEVEL: 0 DIFFERENT FILL-ORIGIN LEVEL: 0
L1I AVERAGE MISS LATENCY: -nan cycles
L1I RQ	ACCESS:    7221851	FORWARD:          0	MERGED:    2410505	TO_CACHE:    4811346

BTB TOTAL     ACCESS:    3283960  HIT:    3283952  MISS:          8  HIT %:    99.9998  MISS %: 0.000243608   MPKI: 0.00032
BTB BRANCH_DIRECT_JUMP	ACCESS:     568310  HIT:     568308  MISS:          2
BTB BRANCH_INDIRECT	ACCESS:          0  HIT:          0  MISS:          0
BTB BRANCH_CONDITIONAL	ACCESS:    1606983  HIT:    1606979  MISS:          4
BTB BRANCH_DIRECT_CALL	ACCESS:     554334  HIT:     554333  MISS:          1
BTB BRANCH_INDIRECT_CALL	ACCESS:          0  HIT:          0  MISS:          0
BTB BRANCH_RETURN	ACCESS:     554333  HIT:     554332  MISS:          1
BTB BRANCH_OTHER ACCESS:          0  HIT:          0  MISS:          0

L2C TOTAL     ACCESS:    4943277  HIT:    1539576  MISS:    3403701  HIT %:    31.1448  MISS %:    68.8552   MPKI: 136.148
L2C LOAD      ACCESS:    1145358  HIT:     266137  MISS:     879221  HIT %:    23.2361  MISS %:    76.7639   MPKI: 35.1688
L2C DATA LOAD MPKI: 35.1688
L2C INSTRUCTION LOAD MPKI: 0
L2C RFO       ACCESS:      69359  HIT:      16775  MISS:      52584  HIT %:    24.1858  MISS %:    75.8142   MPKI: 2.10336
L2C PREFETCH  ACCESS:    2333891  HIT:     327207  MISS:    2006684  HIT %:    14.0198  MISS %:    85.9802   MPKI: 80.2674
AGUS PREFETCH L1 MISS: 0
L2C DATA PREFETCH MPKI: 80.2674
L2C INSTRUCTION PREFETCH MPKI: 0
L2C WRITEBACK ACCESS:     554588  HIT:     554584  MISS:          4  HIT %:    99.9993  MISS %: 0.000721256   MPKI: 0.00016
L2C LOAD TRANSLATION ACCESS:     619785  HIT:     245174  MISS:     374611  HIT %:    39.5579  MISS %:    60.4421   MPKI: 14.9844
L2C PREFETCH TRANSLATION ACCESS:     220043  HIT:     129696  MISS:      90347  HIT %:    58.9412  MISS %:    41.0588   MPKI: 3.61388
L2C TRANSLATION FROM L1D PREFETCHER ACCESS:        253  HIT:          3  MISS:        250  HIT %:    1.18577  MISS %:    98.8142   MPKI: 0.01
L2C PREFETCH  REQUESTED:          0  ISSUED:          0  USEFUL:      68146  USELESS:    2023964
L2C USEFUL LOAD PREFETCHES:      68146 PREFETCH ISSUED TO LOWER LEVEL:    2006687  ACCURACY: 3.39595
L2C TIMELY PREFETCHES:      68146 LATE PREFETCHES: 0 DROPPED PREFETCHES: 0
L2C PREFETCHES SAME FILL-ORIGIN LEVEL: 0 DIFFERENT FILL-ORIGIN LEVEL: 0
L2C AVERAGE MISS LATENCY: 74.7572 cycles
L2C RQ	ACCESS:    2054800	FORWARD:          0	MERGED:          0	TO_CACHE:    2054800
L2C WQ	ACCESS:     554588	FORWARD:          0	MERGED:          0	TO_CACHE:     554588
L2C PQ	ACCESS:    2333894	FORWARD:          0	MERGED:          0	TO_CACHE:    2333894

L2C Instructions Evicting Data 0
L2C Translations Evicting Data 374454
L2C Data Evicting Data 2561772
L2C Instructions Evicting Instructions 0
L2C Translations Evicting Instructions 0
L2C Data Evicting Instructions 0
L2C Instructions Evicting Translations 0
L2C Translations Evicting Translations 90754
L2C Data Evicting Translations 376717
L2C Dense regions hint from L2: 0
PSCL5 TOTAL     ACCESS:     738934  HIT:     738934  MISS:          0  HIT %:        100  MISS %:          0   MPKI: 0
PSCL5 LOAD TRANSLATION ACCESS:     559745  HIT:     559745  MISS:          0  HIT %:        100  MISS %:          0   MPKI: 0
PSCL5 PREFETCH TRANSLATION ACCESS:     179062  HIT:     179062  MISS:          0  HIT %:        100  MISS %:          0   MPKI: 0
PSCL5 TRANSLATION FROM L1D PREFETCHER ACCESS:        127  HIT:        127  MISS:          0  HIT %:        100  MISS %:          0   MPKI: 0
PSCL5 PREFETCH  REQUESTED:          0  ISSUED:          0  USEFUL:          0  USELESS:          0
PSCL5 USEFUL LOAD PREFETCHES:          0 PREFETCH ISSUED TO LOWER LEVEL:          0  ACCURACY: -nan
PSCL5 TIMELY PREFETCHES:          0 LATE PREFETCHES: 0 DROPPED PREFETCHES: 0
PSCL5 PREFETCHES SAME FILL-ORIGIN LEVEL: 0 DIFFERENT FILL-ORIGIN LEVEL: 0

PSCL4 TOTAL     ACCESS:     738934  HIT:     738934  MISS:          0  HIT %:        100  MISS %:          0   MPKI: 0
PSCL4 LOAD TRANSLATION ACCESS:     559745  HIT:     559745  MISS:          0  HIT %:        100  MISS %:          0   MPKI: 0
PSCL4 PREFETCH TRANSLATION ACCESS:     179062  HIT:     179062  MISS:          0  HIT %:        100  MISS %:          0   MPKI: 0
PSCL4 TRANSLATION FROM L1D PREFETCHER ACCESS:        127  HIT:        127  MISS:          0  HIT %:        100  MISS %:          0   MPKI: 0
PSCL4 PREFETCH  REQUESTED:          0  ISSUED:          0  USEFUL:          0  USELESS:          0
PSCL4 USEFUL LOAD PREFETCHES:          0 PREFETCH ISSUED TO LOWER LEVEL:          0  ACCURACY: -nan
PSCL4 TIMELY PREFETCHES:          0 LATE PREFETCHES: 0 DROPPED PREFETCHES: 0
PSCL4 PREFETCHES SAME FILL-ORIGIN LEVEL: 0 DIFFERENT FILL-ORIGIN LEVEL: 0

PSCL3 TOTAL     ACCESS:     737309  HIT:     737309  MISS:          0  HIT %:        100  MISS %:          0   MPKI: 0
PSCL3 LOAD TRANSLATION ACCESS:     559745  HIT:     559745  MISS:          0  HIT %:        100  MISS %:          0   MPKI: 0
PSCL3 PREFETCH TRANSLATION ACCESS:     177437  HIT:     177437  MISS:          0  HIT %:        100  MISS %:          0   MPKI: 0
PSCL3 TRANSLATION FROM L1D PREFETCHER ACCESS:        127  HIT:        127  MISS:          0  HIT %:        100  MISS %:          0   MPKI: 0
PSCL3 PREFETCH  REQUESTED:          0  ISSUED:          0  USEFUL:          0  USELESS:          0
PSCL3 USEFUL LOAD PREFETCHES:          0 PREFETCH ISSUED TO LOWER LEVEL:          0  ACCURACY: -nan
PSCL3 TIMELY PREFETCHES:          0 LATE PREFETCHES: 0 DROPPED PREFETCHES: 0
PSCL3 PREFETCHES SAME FILL-ORIGIN LEVEL: 0 DIFFERENT FILL-ORIGIN LEVEL: 0

PSCL2 TOTAL     ACCESS:     711264  HIT:     633963  MISS:      77301  HIT %:    89.1319  MISS %:    10.8681   MPKI: 3.09204
PSCL2 LOAD TRANSLATION ACCESS:     577006  HIT:     499705  MISS:      77301  HIT %:    86.6031  MISS %:    13.3969   MPKI: 3.09204
PSCL2 PREFETCH TRANSLATION ACCESS:     134257  HIT:     134257  MISS:          0  HIT %:        100  MISS %:          0   MPKI: 0
PSCL2 TRANSLATION FROM L1D PREFETCHER ACCESS:          1  HIT:          1  MISS:          0  HIT %:        100  MISS %:          0   MPKI: 0
PSCL2 PREFETCH  REQUESTED:          0  ISSUED:          0  USEFUL:          0  USELESS:          0
PSCL2 USEFUL LOAD PREFETCHES:          0 PREFETCH ISSUED TO LOWER LEVEL:          0  ACCURACY: -nan
PSCL2 TIMELY PREFETCHES:          0 LATE PREFETCHES: 0 DROPPED PREFETCHES: 0
PSCL2 PREFETCHES SAME FILL-ORIGIN LEVEL: 0 DIFFERENT FILL-ORIGIN LEVEL: 0

LLC TOTAL     ACCESS:    3960712  HIT:    3196608  MISS:     764104  HIT %:    80.7079  MISS %:    19.2921   MPKI: 30.5642
LLC LOAD      ACCESS:     879221  HIT:     600694  MISS:     278527  HIT %:    68.3212  MISS %:    31.6788   MPKI: 11.1411
LLC RFO       ACCESS:      52584  HIT:      51687  MISS:        897  HIT %:    98.2942  MISS %:    1.70584   MPKI: 0.03588
LLC PREFETCH  ACCESS:    2006684  HIT:    1548842  MISS:     457842  HIT %:    77.1842  MISS %:    22.8158   MPKI: 18.3137
AGUS PREFETCH L1 MISS: 0
LLC WRITEBACK ACCESS:     557015  HIT:     557015  MISS:          0  HIT %:        100  MISS %:          0   MPKI: 0
LLC LOAD TRANSLATION ACCESS:     374611  HIT:     361107  MISS:      13504  HIT %:    96.3952  MISS %:    3.60481   MPKI: 0.54016
LLC PREFETCH TRANSLATION ACCESS:      90347  HIT:      77015  MISS:      13332  HIT %:    85.2436  MISS %:    14.7564   MPKI: 0.53328
LLC TRANSLATION FROM L1D PREFETCHER ACCESS:        250  HIT:        248  MISS:          2  HIT %:       99.2  MISS %:        0.8   MPKI: 8e-05
LLC PREFETCH  REQUESTED:          0  ISSUED:          0  USEFUL:     374515  USELESS:      82182
LLC USEFUL LOAD PREFETCHES:     374515 PREFETCH ISSUED TO LOWER LEVEL:     457845  ACCURACY: 81.7995
LLC TIMELY PREFETCHES:     374515 LATE PREFETCHES: 0 DROPPED PREFETCHES: 0
LLC PREFETCHES SAME FILL-ORIGIN LEVEL: 0 DIFFERENT FILL-ORIGIN LEVEL: 0
LLC AVERAGE MISS LATENCY: 197.198 cycles
LLC RQ	ACCESS:    1397015	FORWARD:          0	MERGED:          0	TO_CACHE:    1397015
LLC WQ	ACCESS:     557014	FORWARD:          0	MERGED:          0	TO_CACHE:     557014
LLC PQ	ACCESS:    2006687	FORWARD:          0	MERGED:          0	TO_CACHE:    2006687

LLC Dense regions hint to LLC: 0

RAW hits: 493050
Loads Generated: 6650532
Loads sent to L1D: 6157479
Stores Generated: 1108672
Stores sent to L1D: 1108674
Major fault: 0 Minor fault: 23115
Allocated PAGES: 23115
CPU 0 L1D optimized prefetcher final stats
Degree: 5
CPU 0 STLB arbitrary stride prefetcher final stats
Degree: 8

DRAM Statistics
 CHANNEL 0
 RQ ROW_BUFFER_HIT:       9097  ROW_BUFFER_MISS:     755007
 DBUS_CONGESTED:          9
 WQ ROW_BUFFER_HIT:     192606  ROW_BUFFER_MISS:     375375  FULL:          0

 AVG_CONGESTED_CYCLE: 5
 All warmup complete: 2
Channel 0 Bank busy for read cycles: 0
Channel 0 Bank busy for write cycles: 0
Channel 0
Rank 0
0banks busy for read cycles: 918699
0banks busy for write cycles: 20277
1banks busy for read cycles: 15557538
1banks busy for write cycles: 1666255
2banks busy for read cycles: 14439024
2banks busy for write cycles: 2522054
3banks busy for read cycles: 11003599
3banks busy for write cycles: 3767342
4banks busy for read cycles: 4523394
4banks busy for write cycles: 3318393
5banks busy for read cycles: 993555
5banks busy for write cycles: 1497547
6banks busy for read cycles: 1276729
6banks busy for write cycles: 706130
7banks busy for read cycles: 564661
7banks busy for write cycles: 926773
8banks busy for read cycles: 271970
8banks busy for write cycles: 10461380

CPU 0 Branch Prediction Accuracy: 99.9685% MPKI: 0.04912 Average ROB Occupancy at Mispredict: 154.924
Branch types
NOT_BRANCH: 21105622 84.4225%
BRANCH_DIRECT_JUMP: 568310 2.27324%
BRANCH_INDIRECT: 0 0%
BRANCH_CONDITIONAL: 2217333 8.86933%
BRANCH_DIRECT_CALL: 554334 2.21734%
BRANCH_INDIRECT_CALL: 0 0%
BRANCH_RETURN: 554333 2.21733%
BRANCH_OTHER: 0 0%

DRAM PAGES: 1048576
Allocated PAGES: 23115
