
*** ChampSim Multicore Out-of-Order Simulator ***

Warmup Instructions: 25000000
Simulation Instructions: 25000000
Number of CPUs: 1
LLC sets: 2048
LLC ways: 16
Off-chip DRAM Size: 4096 MB Channels: 1 Width: 64-bit Data Rate: 6400 MT/s
CPU 0 runs /home/yashas/CS683/pa2-lehra-do-prefetcher-wronganswersonly/traces/trace1.champsimtrace.xz
.xz
CPU 0 Bimodal branch predictor
BTB has LRU replacement policy
ITLB has LRU replacement policy
DTLB has LRU replacement policy
STLB has LRU replacement policy
L1I has LRU replacement policy
CPU 0 L1D Optimized prefetcher
L1D has LRU replacement policy
L2C has LRU replacement policy
LLC has LRU replacement policy
Heartbeat CPU 0 instructions: 10000003 cycles: 2830061 heartbeat IPC: 3.53349 cumulative IPC: 3.53349 (Simulation time: 0 hr 0 min 15 sec) 
Heartbeat CPU 0 instructions: 20000003 cycles: 5650207 heartbeat IPC: 3.54592 cumulative IPC: 3.53969 (Simulation time: 0 hr 0 min 30 sec) 

Warmup complete CPU 0 instructions: 25000004 cycles: 7064357 (Simulation time: 0 hr 0 min 37 sec) 

IP_STRIDE Accuracy is 18.835 
Switching to CPLX L1D prefetcher
Heartbeat CPU 0 instructions: 30000002 cycles: 23991419 heartbeat IPC: 0.54522 cumulative IPC: 0.295385 (Simulation time: 0 hr 0 min 58 sec) 
Heartbeat CPU 0 instructions: 40000001 cycles: 60330622 heartbeat IPC: 0.275185 cumulative IPC: 0.281604 (Simulation time: 0 hr 1 min 41 sec) 
CPLX Accuracy is 17.8431 
Switching to NL L1D prefetcher
NL Accuracy is 216.667 
Prefetcher set to NL
Heartbeat CPU 0 instructions: 50000000 cycles: 87804662 heartbeat IPC: 0.36398 cumulative IPC: 0.309635 (Simulation time: 0 hr 2 min 26 sec) 
Finished CPU 0 instructions: 25000000 cycles: 80740306 cumulative IPC: 0.309635 (Simulation time: 0 hr 2 min 26 sec) 

ChampSim completed all CPUs

Region of Interest Statistics

CPU 0 cumulative IPC: 0.309635 instructions: 25000000 cycles: 80740306
ITLB TOTAL     ACCESS:    4455211  HIT:    4455211  MISS:          0  HIT %:        100  MISS %:          0   MPKI: 0
ITLB LOAD TRANSLATION ACCESS:    4455211  HIT:    4455211  MISS:          0  HIT %:        100  MISS %:          0   MPKI: 0
ITLB PREFETCH  REQUESTED:          0  ISSUED:          0  USEFUL:          0  USELESS:          0
ITLB USEFUL LOAD PREFETCHES:          0 PREFETCH ISSUED TO LOWER LEVEL:          0  ACCURACY: -nan
ITLB TIMELY PREFETCHES:          0 LATE PREFETCHES: 0 DROPPED PREFETCHES: 0
ITLB PREFETCHES SAME FILL-ORIGIN LEVEL: 0 DIFFERENT FILL-ORIGIN LEVEL: 0
ITLB AVERAGE MISS LATENCY: -nan cycles
ITLB RQ	ACCESS:    4804697	FORWARD:          0	MERGED:     349487	TO_CACHE:    4455210

DTLB TOTAL     ACCESS:    3734574  HIT:    3071666  MISS:     662908  HIT %:    82.2494  MISS %:    17.7506   MPKI: 26.5163
DTLB LOAD TRANSLATION ACCESS:    3734574  HIT:    3071666  MISS:     662908  HIT %:    82.2494  MISS %:    17.7506   MPKI: 26.5163
DTLB PREFETCH  REQUESTED:          0  ISSUED:          0  USEFUL:          0  USELESS:          0
DTLB USEFUL LOAD PREFETCHES:          0 PREFETCH ISSUED TO LOWER LEVEL:          0  ACCURACY: -nan
DTLB TIMELY PREFETCHES:          0 LATE PREFETCHES: 0 DROPPED PREFETCHES: 0
DTLB PREFETCHES SAME FILL-ORIGIN LEVEL: 0 DIFFERENT FILL-ORIGIN LEVEL: 0
DTLB AVERAGE MISS LATENCY: 61.9623 cycles
DTLB RQ	ACCESS:    4333156	FORWARD:          0	MERGED:     591427	TO_CACHE:    3741729

STLB TOTAL     ACCESS:    1467305  HIT:     905212  MISS:     562093  HIT %:    61.6921  MISS %:    38.3079   MPKI: 22.4837
STLB LOAD TRANSLATION ACCESS:     662908  HIT:     100885  MISS:     562023  HIT %:    15.2186  MISS %:    84.7814   MPKI: 22.4809
STLB TRANSLATION FROM L1D PREFETCHER ACCESS:     804397  HIT:     804327  MISS:         70  HIT %:    99.9913  MISS %: 0.00870217   MPKI: 0.0028
STLB PREFETCH  REQUESTED:          0  ISSUED:          0  USEFUL:         69  USELESS:          1
STLB USEFUL LOAD PREFETCHES:         69 PREFETCH ISSUED TO LOWER LEVEL:          0  ACCURACY: inf
STLB TIMELY PREFETCHES:         69 LATE PREFETCHES: 0 DROPPED PREFETCHES: 0
STLB PREFETCHES SAME FILL-ORIGIN LEVEL: 0 DIFFERENT FILL-ORIGIN LEVEL: 0
STLB AVERAGE MISS LATENCY: 62.3384 cycles
STLB RQ	ACCESS:    4451210	FORWARD:          0	MERGED:    2983900	TO_CACHE:    1467310

STLB Hit, L1D data hit: 0
STLB Hit, L2C data hit: 0
STLB Hit, LLC data hit: 0
STLB Hit, LLC data miss: 0
STLB STLB hints to L2: 0
L1D TOTAL     ACCESS:    7930189  HIT:    5495700  MISS:    2434489  HIT %:     69.301  MISS %:     30.699   MPKI: 97.3796
L1D LOAD      ACCESS:    3202390  HIT:    2071668  MISS:    1130722  HIT %:    64.6913  MISS %:    35.3087   MPKI: 45.2289
L1D RFO       ACCESS:    1108671  HIT:    1039310  MISS:      69361  HIT %:    93.7438  MISS %:    6.25623   MPKI: 2.77444
L1D PREFETCH  ACCESS:    3619128  HIT:    2384722  MISS:    1234406  HIT %:    65.8922  MISS %:    34.1078   MPKI: 49.3762
AGUS PREFETCH L1 MISS: 0
L1D PREFETCH  REQUESTED:    8819348  ISSUED:    8802298  USEFUL:       5576  USELESS:    1228251
L1D USEFUL LOAD PREFETCHES:       5576 PREFETCH ISSUED TO LOWER LEVEL:    1236365  ACCURACY: 0.451
L1D TIMELY PREFETCHES:       5576 LATE PREFETCHES: 1956 DROPPED PREFETCHES: 0
L1D PREFETCHES SAME FILL-ORIGIN LEVEL: 1236365 DIFFERENT FILL-ORIGIN LEVEL: 0
L1D AVERAGE MISS LATENCY: 89.5482 cycles
L1D RQ	ACCESS:    6159805	FORWARD:          0	MERGED:    2872524	TO_CACHE:    3224483
L1D WQ	ACCESS:    1108674	FORWARD:      62798	MERGED:          1	TO_CACHE:    1108673
L1D PQ	ACCESS:    5014000	FORWARD:          0	MERGED:    1225702	TO_CACHE:    3788298

L1D UNIQUE REGIONS ACCESSED: 0
L1D REGIONS CONFLICTS: 0
L1D Cross Page Prefetch Requests: 0
L1D Same Page Prefetch Requests: 5014000
L1D ROI Sum of L1D PQ occupancy: 52545774
L1D PREFETCHES PUSHED FROM L2C: 0
L1I TOTAL     ACCESS:    4804697  HIT:    4804697  MISS:          0  HIT %:        100  MISS %:          0   MPKI: 0
L1I LOAD      ACCESS:    4804697  HIT:    4804697  MISS:          0  HIT %:        100  MISS %:          0   MPKI: 0
L1I PREFETCH  REQUESTED:          0  ISSUED:          0  USEFUL:          0  USELESS:          0
L1I USEFUL LOAD PREFETCHES:          0 PREFETCH ISSUED TO LOWER LEVEL:          0  ACCURACY: -nan
L1I TIMELY PREFETCHES:          0 LATE PREFETCHES: 0 DROPPED PREFETCHES: 0
L1I PREFETCHES SAME FILL-ORIGIN LEVEL: 0 DIFFERENT FILL-ORIGIN LEVEL: 0
L1I AVERAGE MISS LATENCY: -nan cycles
L1I RQ	ACCESS:    7168922	FORWARD:          0	MERGED:    2364225	TO_CACHE:    4804697

BTB TOTAL     ACCESS:    3283969  HIT:    3283961  MISS:          8  HIT %:    99.9998  MISS %: 0.000243608   MPKI: 0.00032
BTB BRANCH_DIRECT_JUMP	ACCESS:     568311  HIT:     568309  MISS:          2
BTB BRANCH_INDIRECT	ACCESS:          0  HIT:          0  MISS:          0
BTB BRANCH_CONDITIONAL	ACCESS:    1606988  HIT:    1606984  MISS:          4
BTB BRANCH_DIRECT_CALL	ACCESS:     554335  HIT:     554334  MISS:          1
BTB BRANCH_INDIRECT_CALL	ACCESS:          0  HIT:          0  MISS:          0
BTB BRANCH_RETURN	ACCESS:     554335  HIT:     554334  MISS:          1
BTB BRANCH_OTHER ACCESS:          0  HIT:          0  MISS:          0

L2C TOTAL     ACCESS:    3628079  HIT:    1375063  MISS:    2253016  HIT %:    37.9006  MISS %:    62.0994   MPKI: 90.1206
L2C LOAD      ACCESS:    1128766  HIT:     303036  MISS:     825730  HIT %:    26.8467  MISS %:    73.1533   MPKI: 33.0292
L2C DATA LOAD MPKI: 33.0292
L2C INSTRUCTION LOAD MPKI: 0
L2C RFO       ACCESS:      69361  HIT:      30061  MISS:      39300  HIT %:    43.3399  MISS %:    56.6601   MPKI: 1.572
L2C PREFETCH  ACCESS:    1236362  HIT:     183702  MISS:    1052660  HIT %:    14.8583  MISS %:    85.1417   MPKI: 42.1064
AGUS PREFETCH L1 MISS: 0
L2C DATA PREFETCH MPKI: 42.1064
L2C INSTRUCTION PREFETCH MPKI: 0
L2C WRITEBACK ACCESS:     554589  HIT:     554586  MISS:          3  HIT %:    99.9995  MISS %: 0.000540941   MPKI: 0.00012
L2C LOAD TRANSLATION ACCESS:     638861  HIT:     303670  MISS:     335191  HIT %:     47.533  MISS %:     52.467   MPKI: 13.4076
L2C TRANSLATION FROM L1D PREFETCHER ACCESS:        140  HIT:          8  MISS:        132  HIT %:    5.71429  MISS %:    94.2857   MPKI: 0.00528
L2C PREFETCH  REQUESTED:          0  ISSUED:          0  USEFUL:       1700  USELESS:    1045701
L2C USEFUL LOAD PREFETCHES:       1700 PREFETCH ISSUED TO LOWER LEVEL:    1052663  ACCURACY: 0.161495
L2C TIMELY PREFETCHES:       1700 LATE PREFETCHES: 0 DROPPED PREFETCHES: 0
L2C PREFETCHES SAME FILL-ORIGIN LEVEL: 0 DIFFERENT FILL-ORIGIN LEVEL: 0
L2C AVERAGE MISS LATENCY: 85.0734 cycles
L2C RQ	ACCESS:    1837129	FORWARD:          0	MERGED:          0	TO_CACHE:    1837129
L2C WQ	ACCESS:     554589	FORWARD:          0	MERGED:          0	TO_CACHE:     554589
L2C PQ	ACCESS:    1236365	FORWARD:          0	MERGED:          0	TO_CACHE:    1236365

L2C Instructions Evicting Data 0
L2C Translations Evicting Data 251946
L2C Data Evicting Data 1663859
L2C Instructions Evicting Instructions 0
L2C Translations Evicting Instructions 0
L2C Data Evicting Instructions 0
L2C Instructions Evicting Translations 0
L2C Translations Evicting Translations 83377
L2C Data Evicting Translations 253831
L2C Dense regions hint from L2: 0
PSCL5 TOTAL     ACCESS:     562095  HIT:     562095  MISS:          0  HIT %:        100  MISS %:          0   MPKI: 0
PSCL5 LOAD TRANSLATION ACCESS:     562025  HIT:     562025  MISS:          0  HIT %:        100  MISS %:          0   MPKI: 0
PSCL5 TRANSLATION FROM L1D PREFETCHER ACCESS:         70  HIT:         70  MISS:          0  HIT %:        100  MISS %:          0   MPKI: 0
PSCL5 PREFETCH  REQUESTED:          0  ISSUED:          0  USEFUL:          0  USELESS:          0
PSCL5 USEFUL LOAD PREFETCHES:          0 PREFETCH ISSUED TO LOWER LEVEL:          0  ACCURACY: -nan
PSCL5 TIMELY PREFETCHES:          0 LATE PREFETCHES: 0 DROPPED PREFETCHES: 0
PSCL5 PREFETCHES SAME FILL-ORIGIN LEVEL: 0 DIFFERENT FILL-ORIGIN LEVEL: 0

PSCL4 TOTAL     ACCESS:     562095  HIT:     562095  MISS:          0  HIT %:        100  MISS %:          0   MPKI: 0
PSCL4 LOAD TRANSLATION ACCESS:     562025  HIT:     562025  MISS:          0  HIT %:        100  MISS %:          0   MPKI: 0
PSCL4 TRANSLATION FROM L1D PREFETCHER ACCESS:         70  HIT:         70  MISS:          0  HIT %:        100  MISS %:          0   MPKI: 0
PSCL4 PREFETCH  REQUESTED:          0  ISSUED:          0  USEFUL:          0  USELESS:          0
PSCL4 USEFUL LOAD PREFETCHES:          0 PREFETCH ISSUED TO LOWER LEVEL:          0  ACCURACY: -nan
PSCL4 TIMELY PREFETCHES:          0 LATE PREFETCHES: 0 DROPPED PREFETCHES: 0
PSCL4 PREFETCHES SAME FILL-ORIGIN LEVEL: 0 DIFFERENT FILL-ORIGIN LEVEL: 0

PSCL3 TOTAL     ACCESS:     562095  HIT:     562095  MISS:          0  HIT %:        100  MISS %:          0   MPKI: 0
PSCL3 LOAD TRANSLATION ACCESS:     562025  HIT:     562025  MISS:          0  HIT %:        100  MISS %:          0   MPKI: 0
PSCL3 TRANSLATION FROM L1D PREFETCHER ACCESS:         70  HIT:         70  MISS:          0  HIT %:        100  MISS %:          0   MPKI: 0
PSCL3 PREFETCH  REQUESTED:          0  ISSUED:          0  USEFUL:          0  USELESS:          0
PSCL3 USEFUL LOAD PREFETCHES:          0 PREFETCH ISSUED TO LOWER LEVEL:          0  ACCURACY: -nan
PSCL3 TIMELY PREFETCHES:          0 LATE PREFETCHES: 0 DROPPED PREFETCHES: 0
PSCL3 PREFETCHES SAME FILL-ORIGIN LEVEL: 0 DIFFERENT FILL-ORIGIN LEVEL: 0

PSCL2 TOTAL     ACCESS:     562094  HIT:     485187  MISS:      76907  HIT %:    86.3178  MISS %:    13.6822   MPKI: 3.07628
PSCL2 LOAD TRANSLATION ACCESS:     562094  HIT:     485187  MISS:      76907  HIT %:    86.3178  MISS %:    13.6822   MPKI: 3.07628
PSCL2 PREFETCH  REQUESTED:          0  ISSUED:          0  USEFUL:          0  USELESS:          0
PSCL2 USEFUL LOAD PREFETCHES:          0 PREFETCH ISSUED TO LOWER LEVEL:          0  ACCURACY: -nan
PSCL2 TIMELY PREFETCHES:          0 LATE PREFETCHES: 0 DROPPED PREFETCHES: 0
PSCL2 PREFETCHES SAME FILL-ORIGIN LEVEL: 0 DIFFERENT FILL-ORIGIN LEVEL: 0

LLC TOTAL     ACCESS:    2810348  HIT:    2136601  MISS:     673747  HIT %:    76.0262  MISS %:    23.9738   MPKI: 26.9499
LLC LOAD      ACCESS:     825730  HIT:     373358  MISS:     452372  HIT %:    45.2155  MISS %:    54.7845   MPKI: 18.0949
LLC RFO       ACCESS:      39300  HIT:      39139  MISS:        161  HIT %:    99.5903  MISS %:   0.409669   MPKI: 0.00644
LLC PREFETCH  ACCESS:    1052660  HIT:     841218  MISS:     211442  HIT %:    79.9136  MISS %:    20.0864   MPKI: 8.45768
AGUS PREFETCH L1 MISS: 0
LLC WRITEBACK ACCESS:     557335  HIT:     557335  MISS:          0  HIT %:        100  MISS %:          0   MPKI: 0
LLC LOAD TRANSLATION ACCESS:     335191  HIT:     325424  MISS:       9767  HIT %:    97.0861  MISS %:    2.91386   MPKI: 0.39068
LLC TRANSLATION FROM L1D PREFETCHER ACCESS:        132  HIT:        127  MISS:          5  HIT %:    96.2121  MISS %:    3.78788   MPKI: 0.0002
LLC PREFETCH  REQUESTED:          0  ISSUED:          0  USEFUL:     189520  USELESS:       7386
LLC USEFUL LOAD PREFETCHES:     189520 PREFETCH ISSUED TO LOWER LEVEL:     211445  ACCURACY: 89.6309
LLC TIMELY PREFETCHES:     189520 LATE PREFETCHES: 0 DROPPED PREFETCHES: 0
LLC PREFETCHES SAME FILL-ORIGIN LEVEL: 0 DIFFERENT FILL-ORIGIN LEVEL: 0
LLC AVERAGE MISS LATENCY: 182.717 cycles
LLC RQ	ACCESS:    1200353	FORWARD:          0	MERGED:          0	TO_CACHE:    1200353
LLC WQ	ACCESS:     557335	FORWARD:          0	MERGED:          0	TO_CACHE:     557335
LLC PQ	ACCESS:    1052663	FORWARD:          0	MERGED:          0	TO_CACHE:    1052663

LLC Dense regions hint to LLC: 0

RAW hits: 490734
Loads Generated: 6650541
Loads sent to L1D: 6159805
Stores Generated: 1108674
Stores sent to L1D: 1108674
Major fault: 0 Minor fault: 23115
Allocated PAGES: 23115
CPU 0 L1D optimized prefetcher final stats
Degree: 5

DRAM Statistics
 CHANNEL 0
 RQ ROW_BUFFER_HIT:       1150  ROW_BUFFER_MISS:     672597
 DBUS_CONGESTED:          7
 WQ ROW_BUFFER_HIT:     209414  ROW_BUFFER_MISS:     359159  FULL:          0

 AVG_CONGESTED_CYCLE: 5
 All warmup complete: 2
Channel 0 Bank busy for read cycles: 0
Channel 0 Bank busy for write cycles: 0
Channel 0
Rank 0
0banks busy for read cycles: 1822907
0banks busy for write cycles: 40300
1banks busy for read cycles: 18438043
1banks busy for write cycles: 3244026
2banks busy for read cycles: 14672738
2banks busy for write cycles: 4722785
3banks busy for read cycles: 10857635
3banks busy for write cycles: 6823899
4banks busy for read cycles: 3672718
4banks busy for write cycles: 5653041
5banks busy for read cycles: 208044
5banks busy for write cycles: 2272931
6banks busy for read cycles: 516801
6banks busy for write cycles: 972310
7banks busy for read cycles: 167318
7banks busy for write cycles: 752498
8banks busy for read cycles: 100228
8banks busy for write cycles: 5802085

CPU 0 Branch Prediction Accuracy: 99.9685% MPKI: 0.04912 Average ROB Occupancy at Mispredict: 154.689
Branch types
NOT_BRANCH: 21105674 84.4227%
BRANCH_DIRECT_JUMP: 568311 2.27324%
BRANCH_INDIRECT: 0 0%
BRANCH_CONDITIONAL: 2217340 8.86936%
BRANCH_DIRECT_CALL: 554335 2.21734%
BRANCH_INDIRECT_CALL: 0 0%
BRANCH_RETURN: 554335 2.21734%
BRANCH_OTHER: 0 0%

DRAM PAGES: 1048576
Allocated PAGES: 23115
