
*** ChampSim Multicore Out-of-Order Simulator ***

Warmup Instructions: 25000000
Simulation Instructions: 25000000
Number of CPUs: 1
LLC sets: 2048
LLC ways: 16
Off-chip DRAM Size: 4096 MB Channels: 1 Width: 64-bit Data Rate: 6400 MT/s
CPU 0 runs /home/yashas/CS683/pa2-lehra-do-prefetcher-wronganswersonly/traces/trace2.champsimtrace.xz
.xz
CPU 0 Bimodal branch predictor
BTB has LRU replacement policy
ITLB has LRU replacement policy
DTLB has LRU replacement policy
CPU 0 STLB arbitrary stride prefetcher
STLB has LRU replacement policy
L1I has LRU replacement policy
CPU 0 L1D Optimized prefetcher
L1D has LRU replacement policy
L2C has LRU replacement policy
LLC has LRU replacement policy
Heartbeat CPU 0 instructions: 10000002 cycles: 3798475 heartbeat IPC: 2.63264 cumulative IPC: 2.63264 (Simulation time: 0 hr 0 min 16 sec) 
Heartbeat CPU 0 instructions: 20000001 cycles: 7599313 heartbeat IPC: 2.631 cumulative IPC: 2.63182 (Simulation time: 0 hr 0 min 33 sec) 

Warmup complete CPU 0 instructions: 25000001 cycles: 9498821 (Simulation time: 0 hr 0 min 41 sec) 

IP_STRIDE Accuracy is 11.1111 
Switching to CPLX L1D prefetcher
CPLX Accuracy is 43.3333 
Switching to NL L1D prefetcher
NL Accuracy is 70.9677 
Prefetcher set to NL
Heartbeat CPU 0 instructions: 30000001 cycles: 23135471 heartbeat IPC: 0.64366 cumulative IPC: 0.366659 (Simulation time: 0 hr 0 min 58 sec) 
Heartbeat CPU 0 instructions: 40000002 cycles: 50028658 heartbeat IPC: 0.371841 cumulative IPC: 0.370098 (Simulation time: 0 hr 1 min 33 sec) 
Heartbeat CPU 0 instructions: 50000000 cycles: 76412056 heartbeat IPC: 0.379026 cumulative IPC: 0.373618 (Simulation time: 0 hr 2 min 7 sec) 
Finished CPU 0 instructions: 25000000 cycles: 66913257 cumulative IPC: 0.373618 (Simulation time: 0 hr 2 min 7 sec) 

ChampSim completed all CPUs

Region of Interest Statistics

CPU 0 cumulative IPC: 0.373618 instructions: 25000000 cycles: 66913257
ITLB TOTAL     ACCESS:    4554101  HIT:    4554101  MISS:          0  HIT %:        100  MISS %:          0   MPKI: 0
ITLB LOAD TRANSLATION ACCESS:    4554101  HIT:    4554101  MISS:          0  HIT %:        100  MISS %:          0   MPKI: 0
ITLB PREFETCH  REQUESTED:          0  ISSUED:          0  USEFUL:          0  USELESS:          0
ITLB USEFUL LOAD PREFETCHES:          0 PREFETCH ISSUED TO LOWER LEVEL:          0  ACCURACY: -nan
ITLB TIMELY PREFETCHES:          0 LATE PREFETCHES: 0 DROPPED PREFETCHES: 0
ITLB PREFETCHES SAME FILL-ORIGIN LEVEL: 0 DIFFERENT FILL-ORIGIN LEVEL: 0
ITLB AVERAGE MISS LATENCY: -nan cycles
ITLB RQ	ACCESS:    4639514	FORWARD:          0	MERGED:      85413	TO_CACHE:    4554101

DTLB TOTAL     ACCESS:    3872859  HIT:    3838844  MISS:      34015  HIT %:    99.1217  MISS %:   0.878292   MPKI: 1.3606
DTLB LOAD TRANSLATION ACCESS:    3872859  HIT:    3838844  MISS:      34015  HIT %:    99.1217  MISS %:   0.878292   MPKI: 1.3606
DTLB PREFETCH  REQUESTED:          0  ISSUED:          0  USEFUL:          0  USELESS:          0
DTLB USEFUL LOAD PREFETCHES:          0 PREFETCH ISSUED TO LOWER LEVEL:          0  ACCURACY: -nan
DTLB TIMELY PREFETCHES:          0 LATE PREFETCHES: 0 DROPPED PREFETCHES: 0
DTLB PREFETCHES SAME FILL-ORIGIN LEVEL: 0 DIFFERENT FILL-ORIGIN LEVEL: 0
DTLB AVERAGE MISS LATENCY: 86.4254 cycles
DTLB RQ	ACCESS:    4557502	FORWARD:          0	MERGED:     684559	TO_CACHE:    3872943

STLB TOTAL     ACCESS:    3097486  HIT:    3064775  MISS:      32711  HIT %:     98.944  MISS %:    1.05605   MPKI: 1.30844
STLB LOAD TRANSLATION ACCESS:      34015  HIT:      10955  MISS:      23060  HIT %:    32.2064  MISS %:    67.7936   MPKI: 0.9224
STLB PREFETCH TRANSLATION ACCESS:      42814  HIT:      33171  MISS:       9643  HIT %:     77.477  MISS %:     22.523   MPKI: 0.38572
STLB TRANSLATION FROM L1D PREFETCHER ACCESS:    3020657  HIT:    3020649  MISS:          8  HIT %:    99.9997  MISS %: 0.000264843   MPKI: 0.00032
STLB PREFETCH  REQUESTED:     146016  ISSUED:     146014  USEFUL:       9601  USELESS:         25
STLB USEFUL LOAD PREFETCHES:       9601 PREFETCH ISSUED TO LOWER LEVEL:     112843  ACCURACY: 8.50828
STLB TIMELY PREFETCHES:       9601 LATE PREFETCHES: 0 DROPPED PREFETCHES: 103200
STLB PREFETCHES SAME FILL-ORIGIN LEVEL: 112843 DIFFERENT FILL-ORIGIN LEVEL: 0
STLB AVERAGE MISS LATENCY: 116.866 cycles
STLB RQ	ACCESS:   14599719	FORWARD:          0	MERGED:   11545047	TO_CACHE:    3054672
STLB PQ	ACCESS:     146014	FORWARD:          0	MERGED:          0	TO_CACHE:     146014

STLB Hit, L1D data hit: 0
STLB Hit, L2C data hit: 0
STLB Hit, LLC data hit: 0
STLB Hit, LLC data miss: 0
STLB STLB hints to L2: 0
L1D TOTAL     ACCESS:   11334560  HIT:    9503042  MISS:    1831518  HIT %:    83.8413  MISS %:    16.1587   MPKI: 73.2607
L1D LOAD      ACCESS:    4205467  HIT:    3925335  MISS:     280132  HIT %:    93.3389  MISS %:    6.66114   MPKI: 11.2053
L1D RFO       ACCESS:     333324  HIT:     333311  MISS:         13  HIT %:    99.9961  MISS %: 0.00390011   MPKI: 0.00052
L1D PREFETCH  ACCESS:    6795769  HIT:    5244396  MISS:    1551373  HIT %:    77.1715  MISS %:    22.8285   MPKI: 62.0549
AGUS PREFETCH L1 MISS: 0
L1D PREFETCH  REQUESTED:   34766515  ISSUED:   34737118  USEFUL:    1474586  USELESS:      76695
L1D USEFUL LOAD PREFETCHES:    1474586 PREFETCH ISSUED TO LOWER LEVEL:    1788080  ACCURACY: 82.4676
L1D TIMELY PREFETCHES:    1474586 LATE PREFETCHES: 236707 DROPPED PREFETCHES: 0
L1D PREFETCHES SAME FILL-ORIGIN LEVEL: 1788080 DIFFERENT FILL-ORIGIN LEVEL: 0
L1D AVERAGE MISS LATENCY: 120.778 cycles
L1D RQ	ACCESS:    8972962	FORWARD:          0	MERGED:    4747231	TO_CACHE:    4224174
L1D WQ	ACCESS:     370377	FORWARD:       1557	MERGED:      37049	TO_CACHE:     333328
L1D PQ	ACCESS:   20171414	FORWARD:          0	MERGED:    5605710	TO_CACHE:   14565704

L1D UNIQUE REGIONS ACCESSED: 0
L1D REGIONS CONFLICTS: 0
L1D Cross Page Prefetch Requests: 0
L1D Same Page Prefetch Requests: 20171414
L1D ROI Sum of L1D PQ occupancy: 204600833
L1D PREFETCHES PUSHED FROM L2C: 0
L1I TOTAL     ACCESS:    4639513  HIT:    4639513  MISS:          0  HIT %:        100  MISS %:          0   MPKI: 0
L1I LOAD      ACCESS:    4639513  HIT:    4639513  MISS:          0  HIT %:        100  MISS %:          0   MPKI: 0
L1I PREFETCH  REQUESTED:          0  ISSUED:          0  USEFUL:          0  USELESS:          0
L1I USEFUL LOAD PREFETCHES:          0 PREFETCH ISSUED TO LOWER LEVEL:          0  ACCURACY: -nan
L1I TIMELY PREFETCHES:          0 LATE PREFETCHES: 0 DROPPED PREFETCHES: 0
L1I PREFETCHES SAME FILL-ORIGIN LEVEL: 0 DIFFERENT FILL-ORIGIN LEVEL: 0
L1I AVERAGE MISS LATENCY: -nan cycles
L1I RQ	ACCESS:    6963714	FORWARD:          0	MERGED:    2324200	TO_CACHE:    4639514

BTB TOTAL     ACCESS:    5953193  HIT:    5953095  MISS:         98  HIT %:    99.9984  MISS %: 0.00164618   MPKI: 0.00392
BTB BRANCH_DIRECT_JUMP	ACCESS:      85874  HIT:      85848  MISS:         26
BTB BRANCH_INDIRECT	ACCESS:          0  HIT:          0  MISS:          0
BTB BRANCH_CONDITIONAL	ACCESS:    5783213  HIT:    5783164  MISS:         49
BTB BRANCH_DIRECT_CALL	ACCESS:      42053  HIT:      42043  MISS:         10
BTB BRANCH_INDIRECT_CALL	ACCESS:          0  HIT:          0  MISS:          0
BTB BRANCH_RETURN	ACCESS:      42053  HIT:      42040  MISS:         13
BTB BRANCH_OTHER ACCESS:          0  HIT:          0  MISS:          0

L2C TOTAL     ACCESS:    1971123  HIT:     168703  MISS:    1802420  HIT %:    8.55873  MISS %:    91.4413   MPKI: 72.0968
L2C LOAD      ACCESS:      43425  HIT:       5742  MISS:      37683  HIT %:    13.2228  MISS %:    86.7772   MPKI: 1.50732
L2C DATA LOAD MPKI: 1.50732
L2C INSTRUCTION LOAD MPKI: 0
L2C RFO       ACCESS:         13  HIT:          0  MISS:         13  HIT %:          0  MISS %:        100   MPKI: 0.00052
L2C PREFETCH  ACCESS:    1788080  HIT:      32314  MISS:    1755766  HIT %:    1.80719  MISS %:    98.1928   MPKI: 70.2306
AGUS PREFETCH L1 MISS: 0
L2C DATA PREFETCH MPKI: 70.2306
L2C INSTRUCTION PREFETCH MPKI: 0
L2C WRITEBACK ACCESS:       2818  HIT:       2796  MISS:         22  HIT %:    99.2193  MISS %:   0.780696   MPKI: 0.00088
L2C LOAD TRANSLATION ACCESS:      23641  HIT:      18961  MISS:       4680  HIT %:    80.2039  MISS %:    19.7961   MPKI: 0.1872
L2C PREFETCH TRANSLATION ACCESS:     113132  HIT:     108889  MISS:       4243  HIT %:    96.2495  MISS %:    3.75049   MPKI: 0.16972
L2C TRANSLATION FROM L1D PREFETCHER ACCESS:         14  HIT:          1  MISS:         13  HIT %:    7.14286  MISS %:    92.8571   MPKI: 0.00052
L2C PREFETCH  REQUESTED:          0  ISSUED:          0  USEFUL:       5698  USELESS:    1746366
L2C USEFUL LOAD PREFETCHES:       5698 PREFETCH ISSUED TO LOWER LEVEL:    1755766  ACCURACY: 0.324531
L2C TIMELY PREFETCHES:       5698 LATE PREFETCHES: 0 DROPPED PREFETCHES: 0
L2C PREFETCHES SAME FILL-ORIGIN LEVEL: 0 DIFFERENT FILL-ORIGIN LEVEL: 0
L2C AVERAGE MISS LATENCY: 108.253 cycles
L2C RQ	ACCESS:     180224	FORWARD:          0	MERGED:          0	TO_CACHE:     180224
L2C WQ	ACCESS:       2818	FORWARD:          0	MERGED:          0	TO_CACHE:       2818
L2C PQ	ACCESS:    1788080	FORWARD:          0	MERGED:          0	TO_CACHE:    1788080

L2C Instructions Evicting Data 0
L2C Translations Evicting Data 8902
L2C Data Evicting Data 1784573
L2C Instructions Evicting Instructions 0
L2C Translations Evicting Instructions 0
L2C Data Evicting Instructions 0
L2C Instructions Evicting Translations 0
L2C Translations Evicting Translations 34
L2C Data Evicting Translations 8889
L2C Dense regions hint from L2: 0
PSCL5 TOTAL     ACCESS:     135911  HIT:     135911  MISS:          0  HIT %:        100  MISS %:          0   MPKI: 0
PSCL5 LOAD TRANSLATION ACCESS:      23060  HIT:      23060  MISS:          0  HIT %:        100  MISS %:          0   MPKI: 0
PSCL5 PREFETCH TRANSLATION ACCESS:     112843  HIT:     112843  MISS:          0  HIT %:        100  MISS %:          0   MPKI: 0
PSCL5 TRANSLATION FROM L1D PREFETCHER ACCESS:          8  HIT:          8  MISS:          0  HIT %:        100  MISS %:          0   MPKI: 0
PSCL5 PREFETCH  REQUESTED:          0  ISSUED:          0  USEFUL:          0  USELESS:          0
PSCL5 USEFUL LOAD PREFETCHES:          0 PREFETCH ISSUED TO LOWER LEVEL:          0  ACCURACY: -nan
PSCL5 TIMELY PREFETCHES:          0 LATE PREFETCHES: 0 DROPPED PREFETCHES: 0
PSCL5 PREFETCHES SAME FILL-ORIGIN LEVEL: 0 DIFFERENT FILL-ORIGIN LEVEL: 0

PSCL4 TOTAL     ACCESS:     135911  HIT:     135911  MISS:          0  HIT %:        100  MISS %:          0   MPKI: 0
PSCL4 LOAD TRANSLATION ACCESS:      23060  HIT:      23060  MISS:          0  HIT %:        100  MISS %:          0   MPKI: 0
PSCL4 PREFETCH TRANSLATION ACCESS:     112843  HIT:     112843  MISS:          0  HIT %:        100  MISS %:          0   MPKI: 0
PSCL4 TRANSLATION FROM L1D PREFETCHER ACCESS:          8  HIT:          8  MISS:          0  HIT %:        100  MISS %:          0   MPKI: 0
PSCL4 PREFETCH  REQUESTED:          0  ISSUED:          0  USEFUL:          0  USELESS:          0
PSCL4 USEFUL LOAD PREFETCHES:          0 PREFETCH ISSUED TO LOWER LEVEL:          0  ACCURACY: -nan
PSCL4 TIMELY PREFETCHES:          0 LATE PREFETCHES: 0 DROPPED PREFETCHES: 0
PSCL4 PREFETCHES SAME FILL-ORIGIN LEVEL: 0 DIFFERENT FILL-ORIGIN LEVEL: 0

PSCL3 TOTAL     ACCESS:     135008  HIT:     135005  MISS:          3  HIT %:    99.9978  MISS %: 0.00222209   MPKI: 0.00012
PSCL3 LOAD TRANSLATION ACCESS:      22878  HIT:      22875  MISS:          3  HIT %:    99.9869  MISS %:   0.013113   MPKI: 0.00012
PSCL3 PREFETCH TRANSLATION ACCESS:     112123  HIT:     112123  MISS:          0  HIT %:        100  MISS %:          0   MPKI: 0
PSCL3 TRANSLATION FROM L1D PREFETCHER ACCESS:          7  HIT:          7  MISS:          0  HIT %:        100  MISS %:          0   MPKI: 0
PSCL3 PREFETCH  REQUESTED:          0  ISSUED:          0  USEFUL:          0  USELESS:          0
PSCL3 USEFUL LOAD PREFETCHES:          0 PREFETCH ISSUED TO LOWER LEVEL:          0  ACCURACY: -nan
PSCL3 TIMELY PREFETCHES:          0 LATE PREFETCHES: 0 DROPPED PREFETCHES: 0
PSCL3 PREFETCHES SAME FILL-ORIGIN LEVEL: 0 DIFFERENT FILL-ORIGIN LEVEL: 0

PSCL2 TOTAL     ACCESS:     134994  HIT:     134280  MISS:        714  HIT %:    99.4711  MISS %:   0.528912   MPKI: 0.02856
PSCL2 LOAD TRANSLATION ACCESS:      23097  HIT:      22383  MISS:        714  HIT %:    96.9087  MISS %:    3.09131   MPKI: 0.02856
PSCL2 PREFETCH TRANSLATION ACCESS:     111894  HIT:     111894  MISS:          0  HIT %:        100  MISS %:          0   MPKI: 0
PSCL2 TRANSLATION FROM L1D PREFETCHER ACCESS:          3  HIT:          3  MISS:          0  HIT %:        100  MISS %:          0   MPKI: 0
PSCL2 PREFETCH  REQUESTED:          0  ISSUED:          0  USEFUL:          0  USELESS:          0
PSCL2 USEFUL LOAD PREFETCHES:          0 PREFETCH ISSUED TO LOWER LEVEL:          0  ACCURACY: -nan
PSCL2 TIMELY PREFETCHES:          0 LATE PREFETCHES: 0 DROPPED PREFETCHES: 0
PSCL2 PREFETCHES SAME FILL-ORIGIN LEVEL: 0 DIFFERENT FILL-ORIGIN LEVEL: 0

LLC TOTAL     ACCESS:    1805173  HIT:       5644  MISS:    1799529  HIT %:   0.312657  MISS %:    99.6873   MPKI: 71.9812
LLC LOAD      ACCESS:      37683  HIT:        538  MISS:      37145  HIT %:     1.4277  MISS %:    98.5723   MPKI: 1.4858
LLC RFO       ACCESS:         13  HIT:          0  MISS:         13  HIT %:          0  MISS %:        100   MPKI: 0.00052
LLC PREFETCH  ACCESS:    1755766  HIT:       1968  MISS:    1753798  HIT %:   0.112088  MISS %:    99.8879   MPKI: 70.1519
AGUS PREFETCH L1 MISS: 0
LLC WRITEBACK ACCESS:       2775  HIT:       2765  MISS:         10  HIT %:    99.6396  MISS %:    0.36036   MPKI: 0.0004
LLC LOAD TRANSLATION ACCESS:       4680  HIT:        281  MISS:       4399  HIT %:    6.00427  MISS %:    93.9957   MPKI: 0.17596
LLC PREFETCH TRANSLATION ACCESS:       4243  HIT:         92  MISS:       4151  HIT %:    2.16828  MISS %:    97.8317   MPKI: 0.16604
LLC TRANSLATION FROM L1D PREFETCHER ACCESS:         13  HIT:          0  MISS:         13  HIT %:          0  MISS %:        100   MPKI: 0.00052
LLC PREFETCH  REQUESTED:          0  ISSUED:          0  USEFUL:        122  USELESS:    1726049
LLC USEFUL LOAD PREFETCHES:        122 PREFETCH ISSUED TO LOWER LEVEL:    1753798  ACCURACY: 0.00695633
LLC TIMELY PREFETCHES:        122 LATE PREFETCHES: 0 DROPPED PREFETCHES: 0
LLC PREFETCHES SAME FILL-ORIGIN LEVEL: 0 DIFFERENT FILL-ORIGIN LEVEL: 0
LLC AVERAGE MISS LATENCY: 78.2762 cycles
LLC RQ	ACCESS:      46631	FORWARD:          0	MERGED:          0	TO_CACHE:      46631
LLC WQ	ACCESS:       2775	FORWARD:          0	MERGED:          0	TO_CACHE:       2775
LLC PQ	ACCESS:    1755766	FORWARD:          0	MERGED:          0	TO_CACHE:    1755766

LLC Dense regions hint to LLC: 0

RAW hits: 3999
Loads Generated: 8976961
Loads sent to L1D: 8972962
Stores Generated: 370377
Stores sent to L1D: 370377
Major fault: 0 Minor fault: 48857
Allocated PAGES: 48857
CPU 0 L1D optimized prefetcher final stats
Degree: 5
CPU 0 STLB arbitrary stride prefetcher final stats
Degree: 8

DRAM Statistics
 CHANNEL 0
 RQ ROW_BUFFER_HIT:    1669883  ROW_BUFFER_MISS:     129635
 DBUS_CONGESTED:        367
 WQ ROW_BUFFER_HIT:        342  ROW_BUFFER_MISS:       2430  FULL:          0

 AVG_CONGESTED_CYCLE: 4
 All warmup complete: 2
Channel 0 Bank busy for read cycles: 0
Channel 0 Bank busy for write cycles: 0
Channel 0
Rank 0
0banks busy for read cycles: 16070094
0banks busy for write cycles: 1268
1banks busy for read cycles: 13818312
1banks busy for write cycles: 306824
2banks busy for read cycles: 27842681
2banks busy for write cycles: 160383
3banks busy for read cycles: 5223280
3banks busy for write cycles: 62481
4banks busy for read cycles: 964933
4banks busy for write cycles: 31354
5banks busy for read cycles: 693348
5banks busy for write cycles: 15448
6banks busy for read cycles: 1543151
6banks busy for write cycles: 9922
7banks busy for read cycles: 142443
7banks busy for write cycles: 3068
8banks busy for read cycles: 23381
8banks busy for write cycles: 887

CPU 0 Branch Prediction Accuracy: 99.1323% MPKI: 3.09396 Average ROB Occupancy at Mispredict: 107.53
Branch types
NOT_BRANCH: 16085561 64.3422%
BRANCH_DIRECT_JUMP: 85874 0.343496%
BRANCH_INDIRECT: 0 0%
BRANCH_CONDITIONAL: 8744101 34.9764%
BRANCH_DIRECT_CALL: 42053 0.168212%
BRANCH_INDIRECT_CALL: 0 0%
BRANCH_RETURN: 42053 0.168212%
BRANCH_OTHER: 0 0%

DRAM PAGES: 1048576
Allocated PAGES: 48857
