
*** ChampSim Multicore Out-of-Order Simulator ***

Warmup Instructions: 25000000
Simulation Instructions: 25000000
Number of CPUs: 1
LLC sets: 2048
LLC ways: 16
Off-chip DRAM Size: 4096 MB Channels: 1 Width: 64-bit Data Rate: 6400 MT/s
CPU 0 runs /home/yashas/CS683/pa2-lehra-do-prefetcher-wronganswersonly/traces/trace1.champsimtrace.xz
.xz
CPU 0 Bimodal branch predictor
BTB has LRU replacement policy
ITLB has LRU replacement policy
DTLB has LRU replacement policy
STLB has LRU replacement policy
L1I has LRU replacement policy
CPU 0 L1D Complex-Stride prefetcher
L1D has LRU replacement policy
L2C has LRU replacement policy
LLC has LRU replacement policy
Heartbeat CPU 0 instructions: 10000003 cycles: 2829865 heartbeat IPC: 3.53374 cumulative IPC: 3.53374 (Simulation time: 0 hr 0 min 15 sec) 
Heartbeat CPU 0 instructions: 20000003 cycles: 5649930 heartbeat IPC: 3.54602 cumulative IPC: 3.53987 (Simulation time: 0 hr 0 min 31 sec) 

Warmup complete CPU 0 instructions: 25000004 cycles: 7063246 (Simulation time: 0 hr 0 min 39 sec) 

Heartbeat CPU 0 instructions: 30000002 cycles: 23980518 heartbeat IPC: 0.545536 cumulative IPC: 0.295556 (Simulation time: 0 hr 1 min 0 sec) 
Heartbeat CPU 0 instructions: 40000001 cycles: 60310082 heartbeat IPC: 0.275258 cumulative IPC: 0.281707 (Simulation time: 0 hr 1 min 44 sec) 
Heartbeat CPU 0 instructions: 50000000 cycles: 95462214 heartbeat IPC: 0.284478 cumulative IPC: 0.282809 (Simulation time: 0 hr 2 min 27 sec) 
Finished CPU 0 instructions: 25000000 cycles: 88398970 cumulative IPC: 0.282809 (Simulation time: 0 hr 2 min 27 sec) 

ChampSim completed all CPUs

Region of Interest Statistics

CPU 0 cumulative IPC: 0.282809 instructions: 25000000 cycles: 88398970
ITLB TOTAL     ACCESS:    4437878  HIT:    4437878  MISS:          0  HIT %:        100  MISS %:          0   MPKI: 0
ITLB LOAD TRANSLATION ACCESS:    4437878  HIT:    4437878  MISS:          0  HIT %:        100  MISS %:          0   MPKI: 0
ITLB PREFETCH  REQUESTED:          0  ISSUED:          0  USEFUL:          0  USELESS:          0
ITLB USEFUL LOAD PREFETCHES:          0 PREFETCH ISSUED TO LOWER LEVEL:          0  ACCURACY: -nan
ITLB TIMELY PREFETCHES:          0 LATE PREFETCHES: 0 DROPPED PREFETCHES: 0
ITLB PREFETCHES SAME FILL-ORIGIN LEVEL: 0 DIFFERENT FILL-ORIGIN LEVEL: 0
ITLB AVERAGE MISS LATENCY: -nan cycles
ITLB RQ	ACCESS:    4791649	FORWARD:          0	MERGED:     353771	TO_CACHE:    4437878

DTLB TOTAL     ACCESS:    3715375  HIT:    3052465  MISS:     662910  HIT %:    82.1577  MISS %:    17.8423   MPKI: 26.5164
DTLB LOAD TRANSLATION ACCESS:    3715375  HIT:    3052465  MISS:     662910  HIT %:    82.1577  MISS %:    17.8423   MPKI: 26.5164
DTLB PREFETCH  REQUESTED:          0  ISSUED:          0  USEFUL:          0  USELESS:          0
DTLB USEFUL LOAD PREFETCHES:          0 PREFETCH ISSUED TO LOWER LEVEL:          0  ACCURACY: -nan
DTLB TIMELY PREFETCHES:          0 LATE PREFETCHES: 0 DROPPED PREFETCHES: 0
DTLB PREFETCHES SAME FILL-ORIGIN LEVEL: 0 DIFFERENT FILL-ORIGIN LEVEL: 0
DTLB AVERAGE MISS LATENCY: 54.2417 cycles
DTLB RQ	ACCESS:    4315220	FORWARD:          0	MERGED:     591311	TO_CACHE:    3723909

STLB TOTAL     ACCESS:     663142  HIT:     101117  MISS:     562025  HIT %:    15.2482  MISS %:    84.7518   MPKI: 22.481
STLB LOAD TRANSLATION ACCESS:     662910  HIT:     100888  MISS:     562022  HIT %:     15.219  MISS %:     84.781   MPKI: 22.4809
STLB TRANSLATION FROM L1D PREFETCHER ACCESS:        232  HIT:        229  MISS:          3  HIT %:    98.7069  MISS %:     1.2931   MPKI: 0.00012
STLB PREFETCH  REQUESTED:          0  ISSUED:          0  USEFUL:          1  USELESS:          2
STLB USEFUL LOAD PREFETCHES:          1 PREFETCH ISSUED TO LOWER LEVEL:          0  ACCURACY: inf
STLB TIMELY PREFETCHES:          1 LATE PREFETCHES: 0 DROPPED PREFETCHES: 0
STLB PREFETCHES SAME FILL-ORIGIN LEVEL: 0 DIFFERENT FILL-ORIGIN LEVEL: 0
STLB AVERAGE MISS LATENCY: 53.2144 cycles
STLB RQ	ACCESS:     663165	FORWARD:          0	MERGED:         20	TO_CACHE:     663145

STLB Hit, L1D data hit: 0
STLB Hit, L2C data hit: 0
STLB Hit, LLC data hit: 0
STLB Hit, LLC data miss: 0
STLB STLB hints to L2: 0
L1D TOTAL     ACCESS:    4295959  HIT:    3090674  MISS:    1205285  HIT %:    71.9437  MISS %:    28.0563   MPKI: 48.2114
L1D LOAD      ACCESS:    3187050  HIT:    2051176  MISS:    1135874  HIT %:    64.3597  MISS %:    35.6403   MPKI: 45.435
L1D RFO       ACCESS:    1108664  HIT:    1039300  MISS:      69364  HIT %:    93.7435  MISS %:    6.25654   MPKI: 2.77456
L1D PREFETCH  ACCESS:        245  HIT:        198  MISS:         47  HIT %:    80.8163  MISS %:    19.1837   MPKI: 0.00188
AGUS PREFETCH L1 MISS: 0
L1D PREFETCH  REQUESTED:        528  ISSUED:        528  USEFUL:         19  USELESS:         29
L1D USEFUL LOAD PREFETCHES:         19 PREFETCH ISSUED TO LOWER LEVEL:         50  ACCURACY: 38
L1D TIMELY PREFETCHES:         19 LATE PREFETCHES: 3 DROPPED PREFETCHES: 0
L1D PREFETCHES SAME FILL-ORIGIN LEVEL: 50 DIFFERENT FILL-ORIGIN LEVEL: 0
L1D AVERAGE MISS LATENCY: 124.596 cycles
L1D RQ	ACCESS:    6162554	FORWARD:          0	MERGED:    2890460	TO_CACHE:    3206554
L1D WQ	ACCESS:    1108674	FORWARD:      65540	MERGED:          8	TO_CACHE:    1108666
L1D PQ	ACCESS:        276	FORWARD:          0	MERGED:         24	TO_CACHE:        252

L1D UNIQUE REGIONS ACCESSED: 0
L1D REGIONS CONFLICTS: 0
L1D Cross Page Prefetch Requests: 0
L1D Same Page Prefetch Requests: 239072
L1D ROI Sum of L1D PQ occupancy: 3435
L1D PREFETCHES PUSHED FROM L2C: 0
L1I TOTAL     ACCESS:    4791647  HIT:    4791647  MISS:          0  HIT %:        100  MISS %:          0   MPKI: 0
L1I LOAD      ACCESS:    4791647  HIT:    4791647  MISS:          0  HIT %:        100  MISS %:          0   MPKI: 0
L1I PREFETCH  REQUESTED:          0  ISSUED:          0  USEFUL:          0  USELESS:          0
L1I USEFUL LOAD PREFETCHES:          0 PREFETCH ISSUED TO LOWER LEVEL:          0  ACCURACY: -nan
L1I TIMELY PREFETCHES:          0 LATE PREFETCHES: 0 DROPPED PREFETCHES: 0
L1I PREFETCHES SAME FILL-ORIGIN LEVEL: 0 DIFFERENT FILL-ORIGIN LEVEL: 0
L1I AVERAGE MISS LATENCY: -nan cycles
L1I RQ	ACCESS:    7098806	FORWARD:          0	MERGED:    2307157	TO_CACHE:    4791649

BTB TOTAL     ACCESS:    3283965  HIT:    3283957  MISS:          8  HIT %:    99.9998  MISS %: 0.000243608   MPKI: 0.00032
BTB BRANCH_DIRECT_JUMP	ACCESS:     568311  HIT:     568309  MISS:          2
BTB BRANCH_INDIRECT	ACCESS:          0  HIT:          0  MISS:          0
BTB BRANCH_CONDITIONAL	ACCESS:    1606986  HIT:    1606982  MISS:          4
BTB BRANCH_DIRECT_CALL	ACCESS:     554334  HIT:     554333  MISS:          1
BTB BRANCH_INDIRECT_CALL	ACCESS:          0  HIT:          0  MISS:          0
BTB BRANCH_RETURN	ACCESS:     554334  HIT:     554333  MISS:          1
BTB BRANCH_OTHER ACCESS:          0  HIT:          0  MISS:          0

L2C TOTAL     ACCESS:    2398500  HIT:    1415445  MISS:     983055  HIT %:    59.0138  MISS %:    40.9862   MPKI: 39.3222
L2C LOAD      ACCESS:    1135871  HIT:     417705  MISS:     718166  HIT %:     36.774  MISS %:     63.226   MPKI: 28.7266
L2C DATA LOAD MPKI: 28.7266
L2C INSTRUCTION LOAD MPKI: 0
L2C RFO       ACCESS:      69364  HIT:      42366  MISS:      26998  HIT %:    61.0778  MISS %:    38.9222   MPKI: 1.07992
L2C PREFETCH  ACCESS:         50  HIT:         14  MISS:         36  HIT %:         28  MISS %:         72   MPKI: 0.00144
AGUS PREFETCH L1 MISS: 0
L2C DATA PREFETCH MPKI: 0.00144
L2C INSTRUCTION PREFETCH MPKI: 0
L2C WRITEBACK ACCESS:     554350  HIT:     554350  MISS:          0  HIT %:        100  MISS %:          0   MPKI: 0
L2C LOAD TRANSLATION ACCESS:     638859  HIT:     401005  MISS:     237854  HIT %:    62.7689  MISS %:    37.2311   MPKI: 9.51416
L2C TRANSLATION FROM L1D PREFETCHER ACCESS:          6  HIT:          5  MISS:          1  HIT %:    83.3333  MISS %:    16.6667   MPKI: 4e-05
L2C PREFETCH  REQUESTED:          0  ISSUED:          0  USEFUL:          3  USELESS:         43
L2C USEFUL LOAD PREFETCHES:          3 PREFETCH ISSUED TO LOWER LEVEL:         36  ACCURACY: 8.33333
L2C TIMELY PREFETCHES:          3 LATE PREFETCHES: 0 DROPPED PREFETCHES: 0
L2C PREFETCHES SAME FILL-ORIGIN LEVEL: 0 DIFFERENT FILL-ORIGIN LEVEL: 0
L2C AVERAGE MISS LATENCY: 142.76 cycles
L2C RQ	ACCESS:    1844101	FORWARD:          0	MERGED:          0	TO_CACHE:    1844101
L2C WQ	ACCESS:     554350	FORWARD:          0	MERGED:          0	TO_CACHE:     554350
L2C PQ	ACCESS:         50	FORWARD:          0	MERGED:          0	TO_CACHE:         50

L2C Instructions Evicting Data 0
L2C Translations Evicting Data 142276
L2C Data Evicting Data 602850
L2C Instructions Evicting Instructions 0
L2C Translations Evicting Instructions 0
L2C Data Evicting Instructions 0
L2C Instructions Evicting Translations 0
L2C Translations Evicting Translations 95579
L2C Data Evicting Translations 142350
L2C Dense regions hint from L2: 0
PSCL5 TOTAL     ACCESS:     562026  HIT:     562026  MISS:          0  HIT %:        100  MISS %:          0   MPKI: 0
PSCL5 LOAD TRANSLATION ACCESS:     562023  HIT:     562023  MISS:          0  HIT %:        100  MISS %:          0   MPKI: 0
PSCL5 TRANSLATION FROM L1D PREFETCHER ACCESS:          3  HIT:          3  MISS:          0  HIT %:        100  MISS %:          0   MPKI: 0
PSCL5 PREFETCH  REQUESTED:          0  ISSUED:          0  USEFUL:          0  USELESS:          0
PSCL5 USEFUL LOAD PREFETCHES:          0 PREFETCH ISSUED TO LOWER LEVEL:          0  ACCURACY: -nan
PSCL5 TIMELY PREFETCHES:          0 LATE PREFETCHES: 0 DROPPED PREFETCHES: 0
PSCL5 PREFETCHES SAME FILL-ORIGIN LEVEL: 0 DIFFERENT FILL-ORIGIN LEVEL: 0

PSCL4 TOTAL     ACCESS:     562026  HIT:     562026  MISS:          0  HIT %:        100  MISS %:          0   MPKI: 0
PSCL4 LOAD TRANSLATION ACCESS:     562023  HIT:     562023  MISS:          0  HIT %:        100  MISS %:          0   MPKI: 0
PSCL4 TRANSLATION FROM L1D PREFETCHER ACCESS:          3  HIT:          3  MISS:          0  HIT %:        100  MISS %:          0   MPKI: 0
PSCL4 PREFETCH  REQUESTED:          0  ISSUED:          0  USEFUL:          0  USELESS:          0
PSCL4 USEFUL LOAD PREFETCHES:          0 PREFETCH ISSUED TO LOWER LEVEL:          0  ACCURACY: -nan
PSCL4 TIMELY PREFETCHES:          0 LATE PREFETCHES: 0 DROPPED PREFETCHES: 0
PSCL4 PREFETCHES SAME FILL-ORIGIN LEVEL: 0 DIFFERENT FILL-ORIGIN LEVEL: 0

PSCL3 TOTAL     ACCESS:     562026  HIT:     562026  MISS:          0  HIT %:        100  MISS %:          0   MPKI: 0
PSCL3 LOAD TRANSLATION ACCESS:     562023  HIT:     562023  MISS:          0  HIT %:        100  MISS %:          0   MPKI: 0
PSCL3 TRANSLATION FROM L1D PREFETCHER ACCESS:          3  HIT:          3  MISS:          0  HIT %:        100  MISS %:          0   MPKI: 0
PSCL3 PREFETCH  REQUESTED:          0  ISSUED:          0  USEFUL:          0  USELESS:          0
PSCL3 USEFUL LOAD PREFETCHES:          0 PREFETCH ISSUED TO LOWER LEVEL:          0  ACCURACY: -nan
PSCL3 TIMELY PREFETCHES:          0 LATE PREFETCHES: 0 DROPPED PREFETCHES: 0
PSCL3 PREFETCHES SAME FILL-ORIGIN LEVEL: 0 DIFFERENT FILL-ORIGIN LEVEL: 0

PSCL2 TOTAL     ACCESS:     562026  HIT:     485186  MISS:      76840  HIT %:     86.328  MISS %:     13.672   MPKI: 3.0736
PSCL2 LOAD TRANSLATION ACCESS:     562026  HIT:     485186  MISS:      76840  HIT %:     86.328  MISS %:     13.672   MPKI: 3.0736
PSCL2 PREFETCH  REQUESTED:          0  ISSUED:          0  USEFUL:          0  USELESS:          0
PSCL2 USEFUL LOAD PREFETCHES:          0 PREFETCH ISSUED TO LOWER LEVEL:          0  ACCURACY: -nan
PSCL2 TIMELY PREFETCHES:          0 LATE PREFETCHES: 0 DROPPED PREFETCHES: 0
PSCL2 PREFETCHES SAME FILL-ORIGIN LEVEL: 0 DIFFERENT FILL-ORIGIN LEVEL: 0

LLC TOTAL     ACCESS:    1537824  HIT:     887941  MISS:     649883  HIT %:    57.7401  MISS %:    42.2599   MPKI: 25.9953
LLC LOAD      ACCESS:     718166  HIT:      76698  MISS:     641468  HIT %:    10.6797  MISS %:    89.3203   MPKI: 25.6587
LLC RFO       ACCESS:      26998  HIT:      26994  MISS:          4  HIT %:    99.9852  MISS %:  0.0148159   MPKI: 0.00016
LLC PREFETCH  ACCESS:         36  HIT:          2  MISS:         34  HIT %:    5.55556  MISS %:    94.4444   MPKI: 0.00136
AGUS PREFETCH L1 MISS: 0
LLC WRITEBACK ACCESS:     554769  HIT:     554769  MISS:          0  HIT %:        100  MISS %:          0   MPKI: 0
LLC LOAD TRANSLATION ACCESS:     237854  HIT:     229477  MISS:       8377  HIT %:    96.4781  MISS %:    3.52191   MPKI: 0.33508
LLC TRANSLATION FROM L1D PREFETCHER ACCESS:          1  HIT:          1  MISS:          0  HIT %:        100  MISS %:          0   MPKI: 0
LLC PREFETCH  REQUESTED:          0  ISSUED:          0  USEFUL:          4  USELESS:        122
LLC USEFUL LOAD PREFETCHES:          4 PREFETCH ISSUED TO LOWER LEVEL:         34  ACCURACY: 11.7647
LLC TIMELY PREFETCHES:          4 LATE PREFETCHES: 0 DROPPED PREFETCHES: 0
LLC PREFETCHES SAME FILL-ORIGIN LEVEL: 0 DIFFERENT FILL-ORIGIN LEVEL: 0
LLC AVERAGE MISS LATENCY: 170.384 cycles
LLC RQ	ACCESS:     983020	FORWARD:          0	MERGED:          0	TO_CACHE:     983020
LLC WQ	ACCESS:     554769	FORWARD:          0	MERGED:          0	TO_CACHE:     554769
LLC PQ	ACCESS:         36	FORWARD:          0	MERGED:          0	TO_CACHE:         36

LLC Dense regions hint to LLC: 0

RAW hits: 487983
Loads Generated: 6650540
Loads sent to L1D: 6162554
Stores Generated: 1108674
Stores sent to L1D: 1108674
Major fault: 0 Minor fault: 23115
Allocated PAGES: 23115
CPU 0 L1D complex stride prefetcher final stats
Degree: 5

DRAM Statistics
 CHANNEL 0
 RQ ROW_BUFFER_HIT:        730  ROW_BUFFER_MISS:     649153
 DBUS_CONGESTED:          5
 WQ ROW_BUFFER_HIT:     200504  ROW_BUFFER_MISS:     353817  FULL:          0

 AVG_CONGESTED_CYCLE: 5
 All warmup complete: 2
Channel 0 Bank busy for read cycles: 0
Channel 0 Bank busy for write cycles: 0
Channel 0
Rank 0
0banks busy for read cycles: 2815733
0banks busy for write cycles: 65097
1banks busy for read cycles: 20602197
1banks busy for write cycles: 4956218
2banks busy for read cycles: 14341339
2banks busy for write cycles: 7151387
3banks busy for read cycles: 11276683
3banks busy for write cycles: 10302137
4banks busy for read cycles: 3559054
4banks busy for write cycles: 8211295
5banks busy for read cycles: 11679
5banks busy for write cycles: 2967488
6banks busy for read cycles: 0
6banks busy for write cycles: 1135158
7banks busy for read cycles: 0
7banks busy for write cycles: 550165
8banks busy for read cycles: 0
8banks busy for write cycles: 453341

CPU 0 Branch Prediction Accuracy: 99.9685% MPKI: 0.04912 Average ROB Occupancy at Mispredict: 155.876
Branch types
NOT_BRANCH: 21105652 84.4226%
BRANCH_DIRECT_JUMP: 568311 2.27324%
BRANCH_INDIRECT: 0 0%
BRANCH_CONDITIONAL: 2217337 8.86935%
BRANCH_DIRECT_CALL: 554334 2.21734%
BRANCH_INDIRECT_CALL: 0 0%
BRANCH_RETURN: 554334 2.21734%
BRANCH_OTHER: 0 0%

DRAM PAGES: 1048576
Allocated PAGES: 23115
