
*** ChampSim Multicore Out-of-Order Simulator ***

Warmup Instructions: 25000000
Simulation Instructions: 25000000
Number of CPUs: 1
LLC sets: 2048
LLC ways: 16
Off-chip DRAM Size: 4096 MB Channels: 1 Width: 64-bit Data Rate: 6400 MT/s
CPU 0 runs /home/yashas/CS683/pa2-lehra-do-prefetcher-wronganswersonly/traces/trace3.champsimtrace.xz
.xz
CPU 0 Bimodal branch predictor
BTB has LRU replacement policy
ITLB has LRU replacement policy
DTLB has LRU replacement policy
STLB has LRU replacement policy
L1I has LRU replacement policy
CPU 0 L1D Complex-Stride prefetcher
L1D has LRU replacement policy
L2C has LRU replacement policy
LLC has LRU replacement policy
Heartbeat CPU 0 instructions: 10000001 cycles: 3759847 heartbeat IPC: 2.65968 cumulative IPC: 2.65968 (Simulation time: 0 hr 0 min 23 sec) 
Heartbeat CPU 0 instructions: 20000000 cycles: 7490775 heartbeat IPC: 2.6803 cumulative IPC: 2.66995 (Simulation time: 0 hr 0 min 46 sec) 

Warmup complete CPU 0 instructions: 25000004 cycles: 9387004 (Simulation time: 0 hr 0 min 58 sec) 

Heartbeat CPU 0 instructions: 30000001 cycles: 39124317 heartbeat IPC: 0.31612 cumulative IPC: 0.168139 (Simulation time: 0 hr 1 min 21 sec) 
Heartbeat CPU 0 instructions: 40000001 cycles: 99060371 heartbeat IPC: 0.166844 cumulative IPC: 0.167274 (Simulation time: 0 hr 2 min 7 sec) 
Heartbeat CPU 0 instructions: 50000000 cycles: 162286876 heartbeat IPC: 0.158162 cumulative IPC: 0.163506 (Simulation time: 0 hr 2 min 54 sec) 
Finished CPU 0 instructions: 25000000 cycles: 152899874 cumulative IPC: 0.163506 (Simulation time: 0 hr 2 min 54 sec) 

ChampSim completed all CPUs

Region of Interest Statistics

CPU 0 cumulative IPC: 0.163506 instructions: 25000000 cycles: 152899874
ITLB TOTAL     ACCESS:    4046750  HIT:    4046750  MISS:          0  HIT %:        100  MISS %:          0   MPKI: 0
ITLB LOAD TRANSLATION ACCESS:    4046750  HIT:    4046750  MISS:          0  HIT %:        100  MISS %:          0   MPKI: 0
ITLB PREFETCH  REQUESTED:          0  ISSUED:          0  USEFUL:          0  USELESS:          0
ITLB USEFUL LOAD PREFETCHES:          0 PREFETCH ISSUED TO LOWER LEVEL:          0  ACCURACY: -nan
ITLB TIMELY PREFETCHES:          0 LATE PREFETCHES: 0 DROPPED PREFETCHES: 0
ITLB PREFETCHES SAME FILL-ORIGIN LEVEL: 0 DIFFERENT FILL-ORIGIN LEVEL: 0
ITLB AVERAGE MISS LATENCY: -nan cycles
ITLB RQ	ACCESS:    4097947	FORWARD:          0	MERGED:      51198	TO_CACHE:    4046749

DTLB TOTAL     ACCESS:    5231537  HIT:    3027532  MISS:    2204005  HIT %:    57.8708  MISS %:    42.1292   MPKI: 88.1602
DTLB LOAD TRANSLATION ACCESS:    5231537  HIT:    3027532  MISS:    2204005  HIT %:    57.8708  MISS %:    42.1292   MPKI: 88.1602
DTLB PREFETCH  REQUESTED:          0  ISSUED:          0  USEFUL:          0  USELESS:          0
DTLB USEFUL LOAD PREFETCHES:          0 PREFETCH ISSUED TO LOWER LEVEL:          0  ACCURACY: -nan
DTLB TIMELY PREFETCHES:          0 LATE PREFETCHES: 0 DROPPED PREFETCHES: 0
DTLB PREFETCHES SAME FILL-ORIGIN LEVEL: 0 DIFFERENT FILL-ORIGIN LEVEL: 0
DTLB AVERAGE MISS LATENCY: 11.1063 cycles
DTLB RQ	ACCESS:    5759087	FORWARD:          0	MERGED:     493417	TO_CACHE:    5265670

STLB TOTAL     ACCESS:    3061874  HIT:    3032787  MISS:      29087  HIT %:      99.05  MISS %:   0.949974   MPKI: 1.16348
STLB LOAD TRANSLATION ACCESS:    2204005  HIT:    2174918  MISS:      29087  HIT %:    98.6803  MISS %:    1.31973   MPKI: 1.16348
STLB TRANSLATION FROM L1D PREFETCHER ACCESS:     857869  HIT:     857869  MISS:          0  HIT %:        100  MISS %:          0   MPKI: 0
STLB PREFETCH  REQUESTED:          0  ISSUED:          0  USEFUL:          0  USELESS:          0
STLB USEFUL LOAD PREFETCHES:          0 PREFETCH ISSUED TO LOWER LEVEL:          0  ACCURACY: -nan
STLB TIMELY PREFETCHES:          0 LATE PREFETCHES: 0 DROPPED PREFETCHES: 0
STLB PREFETCHES SAME FILL-ORIGIN LEVEL: 0 DIFFERENT FILL-ORIGIN LEVEL: 0
STLB AVERAGE MISS LATENCY: 133.816 cycles
STLB RQ	ACCESS:    6001136	FORWARD:          0	MERGED:    2939262	TO_CACHE:    3061874

STLB Hit, L1D data hit: 0
STLB Hit, L2C data hit: 0
STLB Hit, LLC data hit: 0
STLB Hit, LLC data miss: 0
STLB STLB hints to L2: 0
L1D TOTAL     ACCESS:    7932698  HIT:    4050460  MISS:    3882238  HIT %:    51.0603  MISS %:    48.9397   MPKI: 155.29
L1D LOAD      ACCESS:    5229460  HIT:    2152557  MISS:    3076903  HIT %:    41.1621  MISS %:    58.8379   MPKI: 123.076
L1D RFO       ACCESS:     424050  HIT:     416146  MISS:       7904  HIT %:    98.1361  MISS %:    1.86393   MPKI: 0.31616
L1D PREFETCH  ACCESS:    2279188  HIT:    1481757  MISS:     797431  HIT %:    65.0125  MISS %:    34.9875   MPKI: 31.8972
AGUS PREFETCH L1 MISS: 0
L1D PREFETCH  REQUESTED:    8621230  ISSUED:    8621230  USEFUL:     797339  USELESS:         90
L1D USEFUL LOAD PREFETCHES:     797339 PREFETCH ISSUED TO LOWER LEVEL:     960537  ACCURACY: 83.0097
L1D TIMELY PREFETCHES:     797339 LATE PREFETCHES: 163106 DROPPED PREFETCHES: 0
L1D PREFETCHES SAME FILL-ORIGIN LEVEL: 960537 DIFFERENT FILL-ORIGIN LEVEL: 0
L1D AVERAGE MISS LATENCY: 114.283 cycles
L1D RQ	ACCESS:    8951626	FORWARD:          0	MERGED:    3570802	TO_CACHE:    5315951
L1D WQ	ACCESS:     459661	FORWARD:      64873	MERGED:      16525	TO_CACHE:     443136
L1D PQ	ACCESS:    4824099	FORWARD:          0	MERGED:    1026968	TO_CACHE:    3797131

L1D UNIQUE REGIONS ACCESSED: 0
L1D REGIONS CONFLICTS: 0
L1D Cross Page Prefetch Requests: 0
L1D Same Page Prefetch Requests: 8930774
L1D ROI Sum of L1D PQ occupancy: 51599013
L1D PREFETCHES PUSHED FROM L2C: 0
L1I TOTAL     ACCESS:    4097948  HIT:    4097948  MISS:          0  HIT %:        100  MISS %:          0   MPKI: 0
L1I LOAD      ACCESS:    4097948  HIT:    4097948  MISS:          0  HIT %:        100  MISS %:          0   MPKI: 0
L1I PREFETCH  REQUESTED:          0  ISSUED:          0  USEFUL:          0  USELESS:          0
L1I USEFUL LOAD PREFETCHES:          0 PREFETCH ISSUED TO LOWER LEVEL:          0  ACCURACY: -nan
L1I TIMELY PREFETCHES:          0 LATE PREFETCHES: 0 DROPPED PREFETCHES: 0
L1I PREFETCHES SAME FILL-ORIGIN LEVEL: 0 DIFFERENT FILL-ORIGIN LEVEL: 0
L1I AVERAGE MISS LATENCY: -nan cycles
L1I RQ	ACCESS:    5501444	FORWARD:          0	MERGED:    1403497	TO_CACHE:    4097947

BTB TOTAL     ACCESS:    7381233  HIT:    7359090  MISS:      22143  HIT %:       99.7  MISS %:   0.299991   MPKI: 0.88572
BTB BRANCH_DIRECT_JUMP	ACCESS:     954613  HIT:     954578  MISS:         35
BTB BRANCH_INDIRECT	ACCESS:          0  HIT:          0  MISS:          0
BTB BRANCH_CONDITIONAL	ACCESS:    6254608  HIT:    6254529  MISS:         79
BTB BRANCH_DIRECT_CALL	ACCESS:      79755  HIT:      79739  MISS:         16
BTB BRANCH_INDIRECT_CALL	ACCESS:       6250  HIT:       6242  MISS:          8
BTB BRANCH_RETURN	ACCESS:      86007  HIT:      64002  MISS:      22005
BTB BRANCH_OTHER ACCESS:          0  HIT:          0  MISS:          0

L2C TOTAL     ACCESS:    3991242  HIT:     512959  MISS:    3478283  HIT %:    12.8521  MISS %:    87.1479   MPKI: 139.131
L2C LOAD      ACCESS:    2913793  HIT:     412257  MISS:    2501536  HIT %:    14.1485  MISS %:    85.8515   MPKI: 100.061
L2C DATA LOAD MPKI: 100.061
L2C INSTRUCTION LOAD MPKI: 0
L2C RFO       ACCESS:       7904  HIT:        809  MISS:       7095  HIT %:    10.2353  MISS %:    89.7647   MPKI: 0.2838
L2C PREFETCH  ACCESS:     960537  HIT:          5  MISS:     960532  HIT %: 0.000520542  MISS %:    99.9995   MPKI: 38.4213
AGUS PREFETCH L1 MISS: 0
L2C DATA PREFETCH MPKI: 38.4213
L2C INSTRUCTION PREFETCH MPKI: 0
L2C WRITEBACK ACCESS:      79747  HIT:      79747  MISS:          0  HIT %:        100  MISS %:          0   MPKI: 0
L2C LOAD TRANSLATION ACCESS:      29261  HIT:      20141  MISS:       9120  HIT %:    68.8322  MISS %:    31.1678   MPKI: 0.3648
L2C PREFETCH  REQUESTED:          0  ISSUED:          0  USEFUL:        804  USELESS:     959804
L2C USEFUL LOAD PREFETCHES:        804 PREFETCH ISSUED TO LOWER LEVEL:     960532  ACCURACY: 0.0837036
L2C TIMELY PREFETCHES:        804 LATE PREFETCHES: 0 DROPPED PREFETCHES: 0
L2C PREFETCHES SAME FILL-ORIGIN LEVEL: 0 DIFFERENT FILL-ORIGIN LEVEL: 0
L2C AVERAGE MISS LATENCY: 110.789 cycles
L2C RQ	ACCESS:    2950963	FORWARD:          0	MERGED:          0	TO_CACHE:    2950959
L2C WQ	ACCESS:      79747	FORWARD:          4	MERGED:          0	TO_CACHE:      79747
L2C PQ	ACCESS:     960537	FORWARD:          0	MERGED:          0	TO_CACHE:     960537

L2C Instructions Evicting Data 0
L2C Translations Evicting Data 9097
L2C Data Evicting Data 3460086
L2C Instructions Evicting Instructions 0
L2C Translations Evicting Instructions 0
L2C Data Evicting Instructions 0
L2C Instructions Evicting Translations 0
L2C Translations Evicting Translations 23
L2C Data Evicting Translations 9077
L2C Dense regions hint from L2: 0
PSCL5 TOTAL     ACCESS:      29087  HIT:      29087  MISS:          0  HIT %:        100  MISS %:          0   MPKI: 0
PSCL5 LOAD TRANSLATION ACCESS:      29087  HIT:      29087  MISS:          0  HIT %:        100  MISS %:          0   MPKI: 0
PSCL5 PREFETCH  REQUESTED:          0  ISSUED:          0  USEFUL:          0  USELESS:          0
PSCL5 USEFUL LOAD PREFETCHES:          0 PREFETCH ISSUED TO LOWER LEVEL:          0  ACCURACY: -nan
PSCL5 TIMELY PREFETCHES:          0 LATE PREFETCHES: 0 DROPPED PREFETCHES: 0
PSCL5 PREFETCHES SAME FILL-ORIGIN LEVEL: 0 DIFFERENT FILL-ORIGIN LEVEL: 0

PSCL4 TOTAL     ACCESS:      29087  HIT:      29087  MISS:          0  HIT %:        100  MISS %:          0   MPKI: 0
PSCL4 LOAD TRANSLATION ACCESS:      29087  HIT:      29087  MISS:          0  HIT %:        100  MISS %:          0   MPKI: 0
PSCL4 PREFETCH  REQUESTED:          0  ISSUED:          0  USEFUL:          0  USELESS:          0
PSCL4 USEFUL LOAD PREFETCHES:          0 PREFETCH ISSUED TO LOWER LEVEL:          0  ACCURACY: -nan
PSCL4 TIMELY PREFETCHES:          0 LATE PREFETCHES: 0 DROPPED PREFETCHES: 0
PSCL4 PREFETCHES SAME FILL-ORIGIN LEVEL: 0 DIFFERENT FILL-ORIGIN LEVEL: 0

PSCL3 TOTAL     ACCESS:      29087  HIT:      29087  MISS:          0  HIT %:        100  MISS %:          0   MPKI: 0
PSCL3 LOAD TRANSLATION ACCESS:      29087  HIT:      29087  MISS:          0  HIT %:        100  MISS %:          0   MPKI: 0
PSCL3 PREFETCH  REQUESTED:          0  ISSUED:          0  USEFUL:          0  USELESS:          0
PSCL3 USEFUL LOAD PREFETCHES:          0 PREFETCH ISSUED TO LOWER LEVEL:          0  ACCURACY: -nan
PSCL3 TIMELY PREFETCHES:          0 LATE PREFETCHES: 0 DROPPED PREFETCHES: 0
PSCL3 PREFETCHES SAME FILL-ORIGIN LEVEL: 0 DIFFERENT FILL-ORIGIN LEVEL: 0

PSCL2 TOTAL     ACCESS:      29087  HIT:      28777  MISS:        310  HIT %:    98.9342  MISS %:    1.06577   MPKI: 0.0124
PSCL2 LOAD TRANSLATION ACCESS:      29087  HIT:      28777  MISS:        310  HIT %:    98.9342  MISS %:    1.06577   MPKI: 0.0124
PSCL2 PREFETCH  REQUESTED:          0  ISSUED:          0  USEFUL:          0  USELESS:          0
PSCL2 USEFUL LOAD PREFETCHES:          0 PREFETCH ISSUED TO LOWER LEVEL:          0  ACCURACY: -nan
PSCL2 TIMELY PREFETCHES:          0 LATE PREFETCHES: 0 DROPPED PREFETCHES: 0
PSCL2 PREFETCHES SAME FILL-ORIGIN LEVEL: 0 DIFFERENT FILL-ORIGIN LEVEL: 0

LLC TOTAL     ACCESS:    3553674  HIT:    1559280  MISS:    1994394  HIT %:     43.878  MISS %:     56.122   MPKI: 79.7758
LLC LOAD      ACCESS:    2501536  HIT:    1474050  MISS:    1027486  HIT %:    58.9258  MISS %:    41.0742   MPKI: 41.0994
LLC RFO       ACCESS:       7095  HIT:       5951  MISS:       1144  HIT %:     83.876  MISS %:     16.124   MPKI: 0.04576
LLC PREFETCH  ACCESS:     960532  HIT:          1  MISS:     960531  HIT %: 0.000104109  MISS %:    99.9999   MPKI: 38.4212
AGUS PREFETCH L1 MISS: 0
LLC WRITEBACK ACCESS:      75391  HIT:      75265  MISS:        126  HIT %:    99.8329  MISS %:   0.167129   MPKI: 0.00504
LLC LOAD TRANSLATION ACCESS:       9120  HIT:       4013  MISS:       5107  HIT %:    44.0022  MISS %:    55.9978   MPKI: 0.20428
LLC PREFETCH  REQUESTED:          0  ISSUED:          0  USEFUL:        502  USELESS:     959966
LLC USEFUL LOAD PREFETCHES:        502 PREFETCH ISSUED TO LOWER LEVEL:     960531  ACCURACY: 0.0522628
LLC TIMELY PREFETCHES:        502 LATE PREFETCHES: 0 DROPPED PREFETCHES: 0
LLC PREFETCHES SAME FILL-ORIGIN LEVEL: 0 DIFFERENT FILL-ORIGIN LEVEL: 0
LLC AVERAGE MISS LATENCY: 140.317 cycles
LLC RQ	ACCESS:    2517752	FORWARD:          0	MERGED:          0	TO_CACHE:    2517752
LLC WQ	ACCESS:      75391	FORWARD:          0	MERGED:          0	TO_CACHE:      75391
LLC PQ	ACCESS:     960532	FORWARD:          0	MERGED:          0	TO_CACHE:     960532

LLC Dense regions hint to LLC: 0

RAW hits: 62700
Loads Generated: 9014326
Loads sent to L1D: 8951626
Stores Generated: 459660
Stores sent to L1D: 459661
Major fault: 0 Minor fault: 44120
Allocated PAGES: 44120
CPU 0 L1D complex stride prefetcher final stats
Degree: 5

DRAM Statistics
 CHANNEL 0
 RQ ROW_BUFFER_HIT:     935913  ROW_BUFFER_MISS:    1058339
 DBUS_CONGESTED:        284
 WQ ROW_BUFFER_HIT:      10877  ROW_BUFFER_MISS:      28876  FULL:          0

 AVG_CONGESTED_CYCLE: 4
 All warmup complete: 2
Channel 0 Bank busy for read cycles: 0
Channel 0 Bank busy for write cycles: 0
Channel 0
Rank 0
0banks busy for read cycles: 56257498
0banks busy for write cycles: 15258
1banks busy for read cycles: 40969166
1banks busy for write cycles: 2893952
2banks busy for read cycles: 21748595
2banks busy for write cycles: 599546
3banks busy for read cycles: 12882695
3banks busy for write cycles: 235286
4banks busy for read cycles: 7914399
4banks busy for write cycles: 153161
5banks busy for read cycles: 4246459
5banks busy for write cycles: 129948
6banks busy for read cycles: 2238082
6banks busy for write cycles: 107211
7banks busy for read cycles: 1373717
7banks busy for write cycles: 121968
8banks busy for read cycles: 814801
8banks busy for write cycles: 198133

CPU 0 Branch Prediction Accuracy: 96.3142% MPKI: 11.2642 Average ROB Occupancy at Mispredict: 46.387
Branch types
NOT_BRANCH: 17359361 69.4374%
BRANCH_DIRECT_JUMP: 954613 3.81845%
BRANCH_INDIRECT: 0 0%
BRANCH_CONDITIONAL: 6513665 26.0547%
BRANCH_DIRECT_CALL: 79755 0.31902%
BRANCH_INDIRECT_CALL: 6250 0.025%
BRANCH_RETURN: 86007 0.344028%
BRANCH_OTHER: 0 0%

DRAM PAGES: 1048576
Allocated PAGES: 44120
