
*** ChampSim Multicore Out-of-Order Simulator ***

Warmup Instructions: 25000000
Simulation Instructions: 25000000
Number of CPUs: 1
LLC sets: 2048
LLC ways: 16
Off-chip DRAM Size: 4096 MB Channels: 1 Width: 64-bit Data Rate: 6400 MT/s
CPU 0 runs /home/yashas/CS683/pa2-lehra-do-prefetcher-wronganswersonly/traces/trace1.champsimtrace.xz
.xz
CPU 0 Bimodal branch predictor
BTB has LRU replacement policy
ITLB has LRU replacement policy
DTLB has LRU replacement policy
STLB has LRU replacement policy
L1I has LRU replacement policy
CPU 0 L1D Complex-Stride prefetcher
L1D has LRU replacement policy
L2C has LRU replacement policy
LLC has LRU replacement policy
Heartbeat CPU 0 instructions: 10000003 cycles: 2830061 heartbeat IPC: 3.53349 cumulative IPC: 3.53349 (Simulation time: 0 hr 0 min 16 sec) 
Heartbeat CPU 0 instructions: 20000003 cycles: 5650207 heartbeat IPC: 3.54592 cumulative IPC: 3.53969 (Simulation time: 0 hr 0 min 32 sec) 

Warmup complete CPU 0 instructions: 25000004 cycles: 7064357 (Simulation time: 0 hr 0 min 39 sec) 

Heartbeat CPU 0 instructions: 30000002 cycles: 23982403 heartbeat IPC: 0.545488 cumulative IPC: 0.295542 (Simulation time: 0 hr 1 min 0 sec) 
Heartbeat CPU 0 instructions: 40000001 cycles: 60316026 heartbeat IPC: 0.275227 cumulative IPC: 0.281681 (Simulation time: 0 hr 1 min 44 sec) 
Heartbeat CPU 0 instructions: 50000000 cycles: 95470032 heartbeat IPC: 0.284463 cumulative IPC: 0.282787 (Simulation time: 0 hr 2 min 26 sec) 
Finished CPU 0 instructions: 25000000 cycles: 88405677 cumulative IPC: 0.282787 (Simulation time: 0 hr 2 min 26 sec) 

ChampSim completed all CPUs

Region of Interest Statistics

CPU 0 cumulative IPC: 0.282787 instructions: 25000000 cycles: 88405677
ITLB TOTAL     ACCESS:    4437918  HIT:    4437918  MISS:          0  HIT %:        100  MISS %:          0   MPKI: 0
ITLB LOAD TRANSLATION ACCESS:    4437918  HIT:    4437918  MISS:          0  HIT %:        100  MISS %:          0   MPKI: 0
ITLB PREFETCH  REQUESTED:          0  ISSUED:          0  USEFUL:          0  USELESS:          0
ITLB USEFUL LOAD PREFETCHES:          0 PREFETCH ISSUED TO LOWER LEVEL:          0  ACCURACY: -nan
ITLB TIMELY PREFETCHES:          0 LATE PREFETCHES: 0 DROPPED PREFETCHES: 0
ITLB PREFETCHES SAME FILL-ORIGIN LEVEL: 0 DIFFERENT FILL-ORIGIN LEVEL: 0
ITLB AVERAGE MISS LATENCY: -nan cycles
ITLB RQ	ACCESS:    4791673	FORWARD:          0	MERGED:     353755	TO_CACHE:    4437918

DTLB TOTAL     ACCESS:    3715359  HIT:    3052449  MISS:     662910  HIT %:    82.1576  MISS %:    17.8424   MPKI: 26.5164
DTLB LOAD TRANSLATION ACCESS:    3715359  HIT:    3052449  MISS:     662910  HIT %:    82.1576  MISS %:    17.8424   MPKI: 26.5164
DTLB PREFETCH  REQUESTED:          0  ISSUED:          0  USEFUL:          0  USELESS:          0
DTLB USEFUL LOAD PREFETCHES:          0 PREFETCH ISSUED TO LOWER LEVEL:          0  ACCURACY: -nan
DTLB TIMELY PREFETCHES:          0 LATE PREFETCHES: 0 DROPPED PREFETCHES: 0
DTLB PREFETCHES SAME FILL-ORIGIN LEVEL: 0 DIFFERENT FILL-ORIGIN LEVEL: 0
DTLB AVERAGE MISS LATENCY: 54.2546 cycles
DTLB RQ	ACCESS:    4315203	FORWARD:          0	MERGED:     591316	TO_CACHE:    3723887

STLB TOTAL     ACCESS:     663121  HIT:     101094  MISS:     562027  HIT %:    15.2452  MISS %:    84.7548   MPKI: 22.4811
STLB LOAD TRANSLATION ACCESS:     662910  HIT:     100883  MISS:     562027  HIT %:    15.2182  MISS %:    84.7818   MPKI: 22.4811
STLB TRANSLATION FROM L1D PREFETCHER ACCESS:        211  HIT:        211  MISS:          0  HIT %:        100  MISS %:          0   MPKI: 0
STLB PREFETCH  REQUESTED:          0  ISSUED:          0  USEFUL:          0  USELESS:          0
STLB USEFUL LOAD PREFETCHES:          0 PREFETCH ISSUED TO LOWER LEVEL:          0  ACCURACY: -nan
STLB TIMELY PREFETCHES:          0 LATE PREFETCHES: 0 DROPPED PREFETCHES: 0
STLB PREFETCHES SAME FILL-ORIGIN LEVEL: 0 DIFFERENT FILL-ORIGIN LEVEL: 0
STLB AVERAGE MISS LATENCY: 53.229 cycles
STLB RQ	ACCESS:     663278	FORWARD:          0	MERGED:        154	TO_CACHE:     663124

STLB Hit, L1D data hit: 0
STLB Hit, L2C data hit: 0
STLB Hit, LLC data hit: 0
STLB Hit, LLC data miss: 0
STLB STLB hints to L2: 0
L1D TOTAL     ACCESS:    4296024  HIT:    3090541  MISS:    1205483  HIT %:    71.9396  MISS %:    28.0604   MPKI: 48.2193
L1D LOAD      ACCESS:    3187021  HIT:    2051225  MISS:    1135796  HIT %:    64.3618  MISS %:    35.6382   MPKI: 45.4318
L1D RFO       ACCESS:    1108664  HIT:    1039301  MISS:      69363  HIT %:    93.7436  MISS %:    6.25645   MPKI: 2.77452
L1D PREFETCH  ACCESS:        339  HIT:         15  MISS:        324  HIT %:    4.42478  MISS %:    95.5752   MPKI: 0.01296
AGUS PREFETCH L1 MISS: 0
L1D PREFETCH  REQUESTED:        733  ISSUED:        733  USEFUL:         91  USELESS:        233
L1D USEFUL LOAD PREFETCHES:         91 PREFETCH ISSUED TO LOWER LEVEL:        336  ACCURACY: 27.0833
L1D TIMELY PREFETCHES:         91 LATE PREFETCHES: 12 DROPPED PREFETCHES: 0
L1D PREFETCHES SAME FILL-ORIGIN LEVEL: 336 DIFFERENT FILL-ORIGIN LEVEL: 0
L1D AVERAGE MISS LATENCY: 124.601 cycles
L1D RQ	ACCESS:    6162555	FORWARD:          0	MERGED:    2890477	TO_CACHE:    3206537
L1D WQ	ACCESS:    1108674	FORWARD:      65541	MERGED:          8	TO_CACHE:    1108666
L1D PQ	ACCESS:        368	FORWARD:          0	MERGED:          3	TO_CACHE:        365

L1D UNIQUE REGIONS ACCESSED: 0
L1D REGIONS CONFLICTS: 0
L1D Cross Page Prefetch Requests: 0
L1D Same Page Prefetch Requests: 368
L1D ROI Sum of L1D PQ occupancy: 4798
L1D PREFETCHES PUSHED FROM L2C: 0
L1I TOTAL     ACCESS:    4791671  HIT:    4791671  MISS:          0  HIT %:        100  MISS %:          0   MPKI: 0
L1I LOAD      ACCESS:    4791671  HIT:    4791671  MISS:          0  HIT %:        100  MISS %:          0   MPKI: 0
L1I PREFETCH  REQUESTED:          0  ISSUED:          0  USEFUL:          0  USELESS:          0
L1I USEFUL LOAD PREFETCHES:          0 PREFETCH ISSUED TO LOWER LEVEL:          0  ACCURACY: -nan
L1I TIMELY PREFETCHES:          0 LATE PREFETCHES: 0 DROPPED PREFETCHES: 0
L1I PREFETCHES SAME FILL-ORIGIN LEVEL: 0 DIFFERENT FILL-ORIGIN LEVEL: 0
L1I AVERAGE MISS LATENCY: -nan cycles
L1I RQ	ACCESS:    7098879	FORWARD:          0	MERGED:    2307206	TO_CACHE:    4791673

BTB TOTAL     ACCESS:    3283965  HIT:    3283957  MISS:          8  HIT %:    99.9998  MISS %: 0.000243608   MPKI: 0.00032
BTB BRANCH_DIRECT_JUMP	ACCESS:     568311  HIT:     568309  MISS:          2
BTB BRANCH_INDIRECT	ACCESS:          0  HIT:          0  MISS:          0
BTB BRANCH_CONDITIONAL	ACCESS:    1606986  HIT:    1606982  MISS:          4
BTB BRANCH_DIRECT_CALL	ACCESS:     554334  HIT:     554333  MISS:          1
BTB BRANCH_INDIRECT_CALL	ACCESS:          0  HIT:          0  MISS:          0
BTB BRANCH_RETURN	ACCESS:     554334  HIT:     554333  MISS:          1
BTB BRANCH_OTHER ACCESS:          0  HIT:          0  MISS:          0

L2C TOTAL     ACCESS:    2398700  HIT:    1415312  MISS:     983388  HIT %:    59.0033  MISS %:    40.9967   MPKI: 39.3355
L2C LOAD      ACCESS:    1135784  HIT:     417629  MISS:     718155  HIT %:    36.7701  MISS %:    63.2299   MPKI: 28.7262
L2C DATA LOAD MPKI: 28.7262
L2C INSTRUCTION LOAD MPKI: 0
L2C RFO       ACCESS:      69363  HIT:      42351  MISS:      27012  HIT %:     61.057  MISS %:     38.943   MPKI: 1.08048
L2C PREFETCH  ACCESS:        336  HIT:         69  MISS:        267  HIT %:    20.5357  MISS %:    79.4643   MPKI: 0.01068
AGUS PREFETCH L1 MISS: 0
L2C DATA PREFETCH MPKI: 0.01068
L2C INSTRUCTION PREFETCH MPKI: 0
L2C WRITEBACK ACCESS:     554350  HIT:     554350  MISS:          0  HIT %:        100  MISS %:          0   MPKI: 0
L2C LOAD TRANSLATION ACCESS:     638867  HIT:     400913  MISS:     237954  HIT %:    62.7537  MISS %:    37.2463   MPKI: 9.51816
L2C PREFETCH  REQUESTED:          0  ISSUED:          0  USEFUL:          3  USELESS:        262
L2C USEFUL LOAD PREFETCHES:          3 PREFETCH ISSUED TO LOWER LEVEL:        267  ACCURACY: 1.1236
L2C TIMELY PREFETCHES:          3 LATE PREFETCHES: 0 DROPPED PREFETCHES: 0
L2C PREFETCHES SAME FILL-ORIGIN LEVEL: 0 DIFFERENT FILL-ORIGIN LEVEL: 0
L2C AVERAGE MISS LATENCY: 142.744 cycles
L2C RQ	ACCESS:    1844015	FORWARD:          0	MERGED:          0	TO_CACHE:    1844015
L2C WQ	ACCESS:     554350	FORWARD:          0	MERGED:          0	TO_CACHE:     554350
L2C PQ	ACCESS:        336	FORWARD:          0	MERGED:          0	TO_CACHE:        336

L2C Instructions Evicting Data 0
L2C Translations Evicting Data 142343
L2C Data Evicting Data 603015
L2C Instructions Evicting Instructions 0
L2C Translations Evicting Instructions 0
L2C Data Evicting Instructions 0
L2C Instructions Evicting Translations 0
L2C Translations Evicting Translations 95611
L2C Data Evicting Translations 142419
L2C Dense regions hint from L2: 0
PSCL5 TOTAL     ACCESS:     562028  HIT:     562028  MISS:          0  HIT %:        100  MISS %:          0   MPKI: 0
PSCL5 LOAD TRANSLATION ACCESS:     562028  HIT:     562028  MISS:          0  HIT %:        100  MISS %:          0   MPKI: 0
PSCL5 PREFETCH  REQUESTED:          0  ISSUED:          0  USEFUL:          0  USELESS:          0
PSCL5 USEFUL LOAD PREFETCHES:          0 PREFETCH ISSUED TO LOWER LEVEL:          0  ACCURACY: -nan
PSCL5 TIMELY PREFETCHES:          0 LATE PREFETCHES: 0 DROPPED PREFETCHES: 0
PSCL5 PREFETCHES SAME FILL-ORIGIN LEVEL: 0 DIFFERENT FILL-ORIGIN LEVEL: 0

PSCL4 TOTAL     ACCESS:     562028  HIT:     562028  MISS:          0  HIT %:        100  MISS %:          0   MPKI: 0
PSCL4 LOAD TRANSLATION ACCESS:     562028  HIT:     562028  MISS:          0  HIT %:        100  MISS %:          0   MPKI: 0
PSCL4 PREFETCH  REQUESTED:          0  ISSUED:          0  USEFUL:          0  USELESS:          0
PSCL4 USEFUL LOAD PREFETCHES:          0 PREFETCH ISSUED TO LOWER LEVEL:          0  ACCURACY: -nan
PSCL4 TIMELY PREFETCHES:          0 LATE PREFETCHES: 0 DROPPED PREFETCHES: 0
PSCL4 PREFETCHES SAME FILL-ORIGIN LEVEL: 0 DIFFERENT FILL-ORIGIN LEVEL: 0

PSCL3 TOTAL     ACCESS:     562028  HIT:     562028  MISS:          0  HIT %:        100  MISS %:          0   MPKI: 0
PSCL3 LOAD TRANSLATION ACCESS:     562028  HIT:     562028  MISS:          0  HIT %:        100  MISS %:          0   MPKI: 0
PSCL3 PREFETCH  REQUESTED:          0  ISSUED:          0  USEFUL:          0  USELESS:          0
PSCL3 USEFUL LOAD PREFETCHES:          0 PREFETCH ISSUED TO LOWER LEVEL:          0  ACCURACY: -nan
PSCL3 TIMELY PREFETCHES:          0 LATE PREFETCHES: 0 DROPPED PREFETCHES: 0
PSCL3 PREFETCHES SAME FILL-ORIGIN LEVEL: 0 DIFFERENT FILL-ORIGIN LEVEL: 0

PSCL2 TOTAL     ACCESS:     562028  HIT:     485188  MISS:      76840  HIT %:    86.3281  MISS %:    13.6719   MPKI: 3.0736
PSCL2 LOAD TRANSLATION ACCESS:     562028  HIT:     485188  MISS:      76840  HIT %:    86.3281  MISS %:    13.6719   MPKI: 3.0736
PSCL2 PREFETCH  REQUESTED:          0  ISSUED:          0  USEFUL:          0  USELESS:          0
PSCL2 USEFUL LOAD PREFETCHES:          0 PREFETCH ISSUED TO LOWER LEVEL:          0  ACCURACY: -nan
PSCL2 TIMELY PREFETCHES:          0 LATE PREFETCHES: 0 DROPPED PREFETCHES: 0
PSCL2 PREFETCHES SAME FILL-ORIGIN LEVEL: 0 DIFFERENT FILL-ORIGIN LEVEL: 0

LLC TOTAL     ACCESS:    1538169  HIT:     888176  MISS:     649993  HIT %:    57.7424  MISS %:    42.2576   MPKI: 25.9997
LLC LOAD      ACCESS:     718155  HIT:      76699  MISS:     641456  HIT %:      10.68  MISS %:      89.32   MPKI: 25.6582
LLC RFO       ACCESS:      27012  HIT:      27008  MISS:          4  HIT %:    99.9852  MISS %:  0.0148082   MPKI: 0.00016
LLC PREFETCH  ACCESS:        267  HIT:        120  MISS:        147  HIT %:    44.9438  MISS %:    55.0562   MPKI: 0.00588
AGUS PREFETCH L1 MISS: 0
LLC WRITEBACK ACCESS:     554781  HIT:     554781  MISS:          0  HIT %:        100  MISS %:          0   MPKI: 0
LLC LOAD TRANSLATION ACCESS:     237954  HIT:     229568  MISS:       8386  HIT %:    96.4758  MISS %:    3.52421   MPKI: 0.33544
LLC PREFETCH  REQUESTED:          0  ISSUED:          0  USEFUL:         19  USELESS:        118
LLC USEFUL LOAD PREFETCHES:         19 PREFETCH ISSUED TO LOWER LEVEL:        147  ACCURACY: 12.9252
LLC TIMELY PREFETCHES:         19 LATE PREFETCHES: 0 DROPPED PREFETCHES: 0
LLC PREFETCHES SAME FILL-ORIGIN LEVEL: 0 DIFFERENT FILL-ORIGIN LEVEL: 0
LLC AVERAGE MISS LATENCY: 170.388 cycles
LLC RQ	ACCESS:     983122	FORWARD:          0	MERGED:          0	TO_CACHE:     983122
LLC WQ	ACCESS:     554781	FORWARD:          0	MERGED:          0	TO_CACHE:     554781
LLC PQ	ACCESS:        267	FORWARD:          0	MERGED:          0	TO_CACHE:        267

LLC Dense regions hint to LLC: 0

RAW hits: 487982
Loads Generated: 6650540
Loads sent to L1D: 6162555
Stores Generated: 1108674
Stores sent to L1D: 1108674
Major fault: 0 Minor fault: 23115
Allocated PAGES: 23115
CPU 0 L1D complex stride prefetcher final stats
Degree: 5

DRAM Statistics
 CHANNEL 0
 RQ ROW_BUFFER_HIT:        744  ROW_BUFFER_MISS:     649249
 DBUS_CONGESTED:          5
 WQ ROW_BUFFER_HIT:     200656  ROW_BUFFER_MISS:     353771  FULL:          0

 AVG_CONGESTED_CYCLE: 5
 All warmup complete: 2
Channel 0 Bank busy for read cycles: 0
Channel 0 Bank busy for write cycles: 0
Channel 0
Rank 0
0banks busy for read cycles: 2814852
0banks busy for write cycles: 65010
1banks busy for read cycles: 20610366
1banks busy for write cycles: 4952519
2banks busy for read cycles: 14342517
2banks busy for write cycles: 7142330
3banks busy for read cycles: 11275904
3banks busy for write cycles: 10301134
4banks busy for read cycles: 3559944
4banks busy for write cycles: 8207121
5banks busy for read cycles: 12222
5banks busy for write cycles: 2974821
6banks busy for read cycles: 91
6banks busy for write cycles: 1139848
7banks busy for read cycles: 13
7banks busy for write cycles: 555271
8banks busy for read cycles: 0
8banks busy for write cycles: 451715

CPU 0 Branch Prediction Accuracy: 99.9685% MPKI: 0.04912 Average ROB Occupancy at Mispredict: 155.888
Branch types
NOT_BRANCH: 21105652 84.4226%
BRANCH_DIRECT_JUMP: 568311 2.27324%
BRANCH_INDIRECT: 0 0%
BRANCH_CONDITIONAL: 2217337 8.86935%
BRANCH_DIRECT_CALL: 554334 2.21734%
BRANCH_INDIRECT_CALL: 0 0%
BRANCH_RETURN: 554334 2.21734%
BRANCH_OTHER: 0 0%

DRAM PAGES: 1048576
Allocated PAGES: 23115
