
*** ChampSim Multicore Out-of-Order Simulator ***

Warmup Instructions: 25000000
Simulation Instructions: 25000000
Number of CPUs: 1
LLC sets: 2048
LLC ways: 16
Off-chip DRAM Size: 4096 MB Channels: 1 Width: 64-bit Data Rate: 6400 MT/s
CPU 0 runs /home/yashas/CS683/pa2-lehra-do-prefetcher-wronganswersonly/traces/trace1.champsimtrace.xz
.xz
CPU 0 Bimodal branch predictor
BTB has LRU replacement policy
ITLB has LRU replacement policy
DTLB has LRU replacement policy
STLB has LRU replacement policy
L1I has LRU replacement policy
CPU 0 L1D Optimized prefetcher
L1D has LRU replacement policy
L2C has LRU replacement policy
LLC has LRU replacement policy
Heartbeat CPU 0 instructions: 10000003 cycles: 2830061 heartbeat IPC: 3.53349 cumulative IPC: 3.53349 (Simulation time: 0 hr 0 min 15 sec) 
Heartbeat CPU 0 instructions: 20000003 cycles: 5650207 heartbeat IPC: 3.54592 cumulative IPC: 3.53969 (Simulation time: 0 hr 0 min 30 sec) 

Warmup complete CPU 0 instructions: 25000004 cycles: 7064357 (Simulation time: 0 hr 0 min 37 sec) 

IP_STRIDE Accuracy is 19.1176 
Switching to CPLX L1D prefetcher
Heartbeat CPU 0 instructions: 30000002 cycles: 23983936 heartbeat IPC: 0.545443 cumulative IPC: 0.295516 (Simulation time: 0 hr 0 min 58 sec) 
CPLX Accuracy is 11.4754 
Switching to NL L1D prefetcher
NL Accuracy is 135.294 
Prefetcher set to NL
Heartbeat CPU 0 instructions: 40000002 cycles: 57375509 heartbeat IPC: 0.299477 cumulative IPC: 0.298145 (Simulation time: 0 hr 1 min 44 sec) 
Heartbeat CPU 0 instructions: 50000000 cycles: 81666642 heartbeat IPC: 0.411673 cumulative IPC: 0.33511 (Simulation time: 0 hr 2 min 28 sec) 
Finished CPU 0 instructions: 25000000 cycles: 74602286 cumulative IPC: 0.33511 (Simulation time: 0 hr 2 min 28 sec) 

ChampSim completed all CPUs

Region of Interest Statistics

CPU 0 cumulative IPC: 0.33511 instructions: 25000000 cycles: 74602286
ITLB TOTAL     ACCESS:    4474000  HIT:    4474000  MISS:          0  HIT %:        100  MISS %:          0   MPKI: 0
ITLB LOAD TRANSLATION ACCESS:    4474000  HIT:    4474000  MISS:          0  HIT %:        100  MISS %:          0   MPKI: 0
ITLB PREFETCH  REQUESTED:          0  ISSUED:          0  USEFUL:          0  USELESS:          0
ITLB USEFUL LOAD PREFETCHES:          0 PREFETCH ISSUED TO LOWER LEVEL:          0  ACCURACY: -nan
ITLB TIMELY PREFETCHES:          0 LATE PREFETCHES: 0 DROPPED PREFETCHES: 0
ITLB PREFETCHES SAME FILL-ORIGIN LEVEL: 0 DIFFERENT FILL-ORIGIN LEVEL: 0
ITLB AVERAGE MISS LATENCY: -nan cycles
ITLB RQ	ACCESS:    4817511	FORWARD:          0	MERGED:     343512	TO_CACHE:    4473999

DTLB TOTAL     ACCESS:    3755933  HIT:    3093224  MISS:     662709  HIT %:    82.3557  MISS %:    17.6443   MPKI: 26.5084
DTLB LOAD TRANSLATION ACCESS:    3755933  HIT:    3093224  MISS:     662709  HIT %:    82.3557  MISS %:    17.6443   MPKI: 26.5084
DTLB PREFETCH  REQUESTED:          0  ISSUED:          0  USEFUL:          0  USELESS:          0
DTLB USEFUL LOAD PREFETCHES:          0 PREFETCH ISSUED TO LOWER LEVEL:          0  ACCURACY: -nan
DTLB TIMELY PREFETCHES:          0 LATE PREFETCHES: 0 DROPPED PREFETCHES: 0
DTLB PREFETCHES SAME FILL-ORIGIN LEVEL: 0 DIFFERENT FILL-ORIGIN LEVEL: 0
DTLB AVERAGE MISS LATENCY: 71.1354 cycles
DTLB RQ	ACCESS:    4352958	FORWARD:          0	MERGED:     590948	TO_CACHE:    3762010

STLB TOTAL     ACCESS:    2214624  HIT:    1652531  MISS:     562093  HIT %:     74.619  MISS %:     25.381   MPKI: 22.4837
STLB LOAD TRANSLATION ACCESS:     662709  HIT:     100739  MISS:     561970  HIT %:    15.2011  MISS %:    84.7989   MPKI: 22.4788
STLB TRANSLATION FROM L1D PREFETCHER ACCESS:    1551915  HIT:    1551792  MISS:        123  HIT %:    99.9921  MISS %: 0.00792569   MPKI: 0.00492
STLB PREFETCH  REQUESTED:          0  ISSUED:          0  USEFUL:        123  USELESS:          0
STLB USEFUL LOAD PREFETCHES:        123 PREFETCH ISSUED TO LOWER LEVEL:          0  ACCURACY: inf
STLB TIMELY PREFETCHES:        123 LATE PREFETCHES: 0 DROPPED PREFETCHES: 0
STLB PREFETCHES SAME FILL-ORIGIN LEVEL: 0 DIFFERENT FILL-ORIGIN LEVEL: 0
STLB AVERAGE MISS LATENCY: 73.1535 cycles
STLB RQ	ACCESS:    7977890	FORWARD:          0	MERGED:    5763261	TO_CACHE:    2214629

STLB Hit, L1D data hit: 0
STLB Hit, L2C data hit: 0
STLB Hit, LLC data hit: 0
STLB Hit, LLC data miss: 0
STLB STLB hints to L2: 0
L1D TOTAL     ACCESS:   11334514  HIT:    7823771  MISS:    3510743  HIT %:    69.0261  MISS %:    30.9739   MPKI: 140.43
L1D LOAD      ACCESS:    3223428  HIT:    2074395  MISS:    1149033  HIT %:    64.3537  MISS %:    35.6463   MPKI: 45.9613
L1D RFO       ACCESS:    1108668  HIT:    1039308  MISS:      69360  HIT %:    93.7438  MISS %:    6.25616   MPKI: 2.7744
L1D PREFETCH  ACCESS:    7002418  HIT:    4710068  MISS:    2292350  HIT %:    67.2635  MISS %:    32.7365   MPKI: 91.694
AGUS PREFETCH L1 MISS: 0
L1D PREFETCH  REQUESTED:   16989867  ISSUED:   16942315  USEFUL:      11868  USELESS:    2279903
L1D USEFUL LOAD PREFETCHES:      11868 PREFETCH ISSUED TO LOWER LEVEL:    2295426  ACCURACY: 0.517028
L1D TIMELY PREFETCHES:      11868 LATE PREFETCHES: 3073 DROPPED PREFETCHES: 0
L1D PREFETCHES SAME FILL-ORIGIN LEVEL: 2295426 DIFFERENT FILL-ORIGIN LEVEL: 0
L1D AVERAGE MISS LATENCY: 81.8838 cycles
L1D RQ	ACCESS:    6155579	FORWARD:          0	MERGED:    2852717	TO_CACHE:    3244288
L1D WQ	ACCESS:    1108674	FORWARD:      58574	MERGED:          4	TO_CACHE:    1108670
L1D PQ	ACCESS:    9627138	FORWARD:          0	MERGED:    2311961	TO_CACHE:    7315177

L1D UNIQUE REGIONS ACCESSED: 0
L1D REGIONS CONFLICTS: 0
L1D Cross Page Prefetch Requests: 0
L1D Same Page Prefetch Requests: 9627138
L1D ROI Sum of L1D PQ occupancy: 101940711
L1D PREFETCHES PUSHED FROM L2C: 0
L1I TOTAL     ACCESS:    4817511  HIT:    4817511  MISS:          0  HIT %:        100  MISS %:          0   MPKI: 0
L1I LOAD      ACCESS:    4817511  HIT:    4817511  MISS:          0  HIT %:        100  MISS %:          0   MPKI: 0
L1I PREFETCH  REQUESTED:          0  ISSUED:          0  USEFUL:          0  USELESS:          0
L1I USEFUL LOAD PREFETCHES:          0 PREFETCH ISSUED TO LOWER LEVEL:          0  ACCURACY: -nan
L1I TIMELY PREFETCHES:          0 LATE PREFETCHES: 0 DROPPED PREFETCHES: 0
L1I PREFETCHES SAME FILL-ORIGIN LEVEL: 0 DIFFERENT FILL-ORIGIN LEVEL: 0
L1I AVERAGE MISS LATENCY: -nan cycles
L1I RQ	ACCESS:    7244137	FORWARD:          0	MERGED:    2426626	TO_CACHE:    4817511

BTB TOTAL     ACCESS:    3283969  HIT:    3283961  MISS:          8  HIT %:    99.9998  MISS %: 0.000243608   MPKI: 0.00032
BTB BRANCH_DIRECT_JUMP	ACCESS:     568311  HIT:     568309  MISS:          2
BTB BRANCH_INDIRECT	ACCESS:          0  HIT:          0  MISS:          0
BTB BRANCH_CONDITIONAL	ACCESS:    1606988  HIT:    1606984  MISS:          4
BTB BRANCH_DIRECT_CALL	ACCESS:     554335  HIT:     554334  MISS:          1
BTB BRANCH_INDIRECT_CALL	ACCESS:          0  HIT:          0  MISS:          0
BTB BRANCH_RETURN	ACCESS:     554335  HIT:     554334  MISS:          1
BTB BRANCH_OTHER ACCESS:          0  HIT:          0  MISS:          0

L2C TOTAL     ACCESS:    4704377  HIT:    1389471  MISS:    3314906  HIT %:    29.5357  MISS %:    70.4643   MPKI: 132.596
L2C LOAD      ACCESS:    1145960  HIT:     274990  MISS:     870970  HIT %:    23.9965  MISS %:    76.0035   MPKI: 34.8388
L2C DATA LOAD MPKI: 34.8388
L2C INSTRUCTION LOAD MPKI: 0
L2C RFO       ACCESS:      69360  HIT:      18249  MISS:      51111  HIT %:    26.3106  MISS %:    73.6894   MPKI: 2.04444
L2C PREFETCH  ACCESS:    2295423  HIT:     327924  MISS:    1967499  HIT %:     14.286  MISS %:     85.714   MPKI: 78.7
AGUS PREFETCH L1 MISS: 0
L2C DATA PREFETCH MPKI: 78.7
L2C INSTRUCTION PREFETCH MPKI: 0
L2C WRITEBACK ACCESS:     554589  HIT:     554585  MISS:          4  HIT %:    99.9993  MISS %: 0.000721255   MPKI: 0.00016
L2C LOAD TRANSLATION ACCESS:     638799  HIT:     213723  MISS:     425076  HIT %:     33.457  MISS %:     66.543   MPKI: 17.003
L2C TRANSLATION FROM L1D PREFETCHER ACCESS:        246  HIT:          0  MISS:        246  HIT %:          0  MISS %:        100   MPKI: 0.00984
L2C PREFETCH  REQUESTED:          0  ISSUED:          0  USEFUL:       2535  USELESS:    1959819
L2C USEFUL LOAD PREFETCHES:       2535 PREFETCH ISSUED TO LOWER LEVEL:    1967502  ACCURACY: 0.128844
L2C TIMELY PREFETCHES:       2535 LATE PREFETCHES: 0 DROPPED PREFETCHES: 0
L2C PREFETCHES SAME FILL-ORIGIN LEVEL: 0 DIFFERENT FILL-ORIGIN LEVEL: 0
L2C AVERAGE MISS LATENCY: 74.7159 cycles
L2C RQ	ACCESS:    1854366	FORWARD:          0	MERGED:          0	TO_CACHE:    1854366
L2C WQ	ACCESS:     554589	FORWARD:          0	MERGED:          0	TO_CACHE:     554589
L2C PQ	ACCESS:    2295426	FORWARD:          0	MERGED:          0	TO_CACHE:    2295426

L2C Instructions Evicting Data 0
L2C Translations Evicting Data 345878
L2C Data Evicting Data 2541817
L2C Instructions Evicting Instructions 0
L2C Translations Evicting Instructions 0
L2C Data Evicting Instructions 0
L2C Instructions Evicting Translations 0
L2C Translations Evicting Translations 79444
L2C Data Evicting Translations 347763
L2C Dense regions hint from L2: 0
PSCL5 TOTAL     ACCESS:     562095  HIT:     562095  MISS:          0  HIT %:        100  MISS %:          0   MPKI: 0
PSCL5 LOAD TRANSLATION ACCESS:     561972  HIT:     561972  MISS:          0  HIT %:        100  MISS %:          0   MPKI: 0
PSCL5 TRANSLATION FROM L1D PREFETCHER ACCESS:        123  HIT:        123  MISS:          0  HIT %:        100  MISS %:          0   MPKI: 0
PSCL5 PREFETCH  REQUESTED:          0  ISSUED:          0  USEFUL:          0  USELESS:          0
PSCL5 USEFUL LOAD PREFETCHES:          0 PREFETCH ISSUED TO LOWER LEVEL:          0  ACCURACY: -nan
PSCL5 TIMELY PREFETCHES:          0 LATE PREFETCHES: 0 DROPPED PREFETCHES: 0
PSCL5 PREFETCHES SAME FILL-ORIGIN LEVEL: 0 DIFFERENT FILL-ORIGIN LEVEL: 0

PSCL4 TOTAL     ACCESS:     562095  HIT:     562095  MISS:          0  HIT %:        100  MISS %:          0   MPKI: 0
PSCL4 LOAD TRANSLATION ACCESS:     561972  HIT:     561972  MISS:          0  HIT %:        100  MISS %:          0   MPKI: 0
PSCL4 TRANSLATION FROM L1D PREFETCHER ACCESS:        123  HIT:        123  MISS:          0  HIT %:        100  MISS %:          0   MPKI: 0
PSCL4 PREFETCH  REQUESTED:          0  ISSUED:          0  USEFUL:          0  USELESS:          0
PSCL4 USEFUL LOAD PREFETCHES:          0 PREFETCH ISSUED TO LOWER LEVEL:          0  ACCURACY: -nan
PSCL4 TIMELY PREFETCHES:          0 LATE PREFETCHES: 0 DROPPED PREFETCHES: 0
PSCL4 PREFETCHES SAME FILL-ORIGIN LEVEL: 0 DIFFERENT FILL-ORIGIN LEVEL: 0

PSCL3 TOTAL     ACCESS:     562095  HIT:     562095  MISS:          0  HIT %:        100  MISS %:          0   MPKI: 0
PSCL3 LOAD TRANSLATION ACCESS:     561972  HIT:     561972  MISS:          0  HIT %:        100  MISS %:          0   MPKI: 0
PSCL3 TRANSLATION FROM L1D PREFETCHER ACCESS:        123  HIT:        123  MISS:          0  HIT %:        100  MISS %:          0   MPKI: 0
PSCL3 PREFETCH  REQUESTED:          0  ISSUED:          0  USEFUL:          0  USELESS:          0
PSCL3 USEFUL LOAD PREFETCHES:          0 PREFETCH ISSUED TO LOWER LEVEL:          0  ACCURACY: -nan
PSCL3 TIMELY PREFETCHES:          0 LATE PREFETCHES: 0 DROPPED PREFETCHES: 0
PSCL3 PREFETCHES SAME FILL-ORIGIN LEVEL: 0 DIFFERENT FILL-ORIGIN LEVEL: 0

PSCL2 TOTAL     ACCESS:     562094  HIT:     485143  MISS:      76951  HIT %:    86.3099  MISS %:    13.6901   MPKI: 3.07804
PSCL2 LOAD TRANSLATION ACCESS:     562094  HIT:     485143  MISS:      76951  HIT %:    86.3099  MISS %:    13.6901   MPKI: 3.07804
PSCL2 PREFETCH  REQUESTED:          0  ISSUED:          0  USEFUL:          0  USELESS:          0
PSCL2 USEFUL LOAD PREFETCHES:          0 PREFETCH ISSUED TO LOWER LEVEL:          0  ACCURACY: -nan
PSCL2 TIMELY PREFETCHES:          0 LATE PREFETCHES: 0 DROPPED PREFETCHES: 0
PSCL2 PREFETCHES SAME FILL-ORIGIN LEVEL: 0 DIFFERENT FILL-ORIGIN LEVEL: 0

LLC TOTAL     ACCESS:    3872237  HIT:    3123671  MISS:     748566  HIT %:    80.6684  MISS %:    19.3316   MPKI: 29.9426
LLC LOAD      ACCESS:     870970  HIT:     587507  MISS:     283463  HIT %:    67.4543  MISS %:    32.5457   MPKI: 11.3385
LLC RFO       ACCESS:      51111  HIT:      50294  MISS:        817  HIT %:    98.4015  MISS %:    1.59848   MPKI: 0.03268
LLC PREFETCH  ACCESS:    1967499  HIT:    1518808  MISS:     448691  HIT %:    77.1949  MISS %:    22.8051   MPKI: 17.9476
AGUS PREFETCH L1 MISS: 0
LLC WRITEBACK ACCESS:     557335  HIT:     557335  MISS:          0  HIT %:        100  MISS %:          0   MPKI: 0
LLC LOAD TRANSLATION ACCESS:     425076  HIT:     409483  MISS:      15593  HIT %:    96.3317  MISS %:    3.66829   MPKI: 0.62372
LLC TRANSLATION FROM L1D PREFETCHER ACCESS:        246  HIT:        244  MISS:          2  HIT %:     99.187  MISS %:   0.813008   MPKI: 8e-05
LLC PREFETCH  REQUESTED:          0  ISSUED:          0  USEFUL:     363086  USELESS:      71069
LLC USEFUL LOAD PREFETCHES:     363086 PREFETCH ISSUED TO LOWER LEVEL:     448694  ACCURACY: 80.9206
LLC TIMELY PREFETCHES:     363086 LATE PREFETCHES: 0 DROPPED PREFETCHES: 0
LLC PREFETCHES SAME FILL-ORIGIN LEVEL: 0 DIFFERENT FILL-ORIGIN LEVEL: 0
LLC AVERAGE MISS LATENCY: 195.686 cycles
LLC RQ	ACCESS:    1347403	FORWARD:          0	MERGED:          0	TO_CACHE:    1347403
LLC WQ	ACCESS:     557335	FORWARD:          0	MERGED:          0	TO_CACHE:     557335
LLC PQ	ACCESS:    1967502	FORWARD:          0	MERGED:          0	TO_CACHE:    1967502

LLC Dense regions hint to LLC: 0

RAW hits: 494960
Loads Generated: 6650541
Loads sent to L1D: 6155579
Stores Generated: 1108674
Stores sent to L1D: 1108674
Major fault: 0 Minor fault: 23115
Allocated PAGES: 23115
CPU 0 L1D optimized prefetcher final stats
Degree: 5

DRAM Statistics
 CHANNEL 0
 RQ ROW_BUFFER_HIT:       8566  ROW_BUFFER_MISS:     740000
 DBUS_CONGESTED:         11
 WQ ROW_BUFFER_HIT:     186166  ROW_BUFFER_MISS:     382407  FULL:          0

 AVG_CONGESTED_CYCLE: 5
 All warmup complete: 2
Channel 0 Bank busy for read cycles: 0
Channel 0 Bank busy for write cycles: 0
Channel 0
Rank 0
0banks busy for read cycles: 1016245
0banks busy for write cycles: 22704
1banks busy for read cycles: 15708931
1banks busy for write cycles: 1831259
2banks busy for read cycles: 14768145
2banks busy for write cycles: 2711506
3banks busy for read cycles: 10786207
3banks busy for write cycles: 4091021
4banks busy for read cycles: 4255481
4banks busy for write cycles: 3477374
5banks busy for read cycles: 862764
5banks busy for write cycles: 1397507
6banks busy for read cycles: 1246741
6banks busy for write cycles: 660720
7banks busy for read cycles: 527437
7banks busy for write cycles: 925665
8banks busy for read cycles: 235873
8banks busy for write cycles: 10076707

CPU 0 Branch Prediction Accuracy: 99.9685% MPKI: 0.04912 Average ROB Occupancy at Mispredict: 155.61
Branch types
NOT_BRANCH: 21105674 84.4227%
BRANCH_DIRECT_JUMP: 568311 2.27324%
BRANCH_INDIRECT: 0 0%
BRANCH_CONDITIONAL: 2217340 8.86936%
BRANCH_DIRECT_CALL: 554335 2.21734%
BRANCH_INDIRECT_CALL: 0 0%
BRANCH_RETURN: 554335 2.21734%
BRANCH_OTHER: 0 0%

DRAM PAGES: 1048576
Allocated PAGES: 23115
