
*** ChampSim Multicore Out-of-Order Simulator ***

Warmup Instructions: 25000000
Simulation Instructions: 25000000
Number of CPUs: 1
LLC sets: 2048
LLC ways: 16
Off-chip DRAM Size: 4096 MB Channels: 1 Width: 64-bit Data Rate: 6400 MT/s
CPU 0 runs /home/yashas/CS683/pa2-lehra-do-prefetcher-wronganswersonly/traces/trace1.champsimtrace.xz
.xz
CPU 0 Bimodal branch predictor
BTB has LRU replacement policy
ITLB has LRU replacement policy
DTLB has LRU replacement policy
STLB has LRU replacement policy
L1I has LRU replacement policy
CPU 0 L1D Complex-Stride prefetcher
L1D has LRU replacement policy
L2C has LRU replacement policy
LLC has LRU replacement policy
Heartbeat CPU 0 instructions: 10000003 cycles: 2830108 heartbeat IPC: 3.53344 cumulative IPC: 3.53344 (Simulation time: 0 hr 0 min 15 sec) 
Heartbeat CPU 0 instructions: 20000003 cycles: 5650360 heartbeat IPC: 3.54578 cumulative IPC: 3.5396 (Simulation time: 0 hr 0 min 30 sec) 

Warmup complete CPU 0 instructions: 25000004 cycles: 7064642 (Simulation time: 0 hr 0 min 37 sec) 

Heartbeat CPU 0 instructions: 30000002 cycles: 23984122 heartbeat IPC: 0.545442 cumulative IPC: 0.295517 (Simulation time: 0 hr 0 min 58 sec) 
Heartbeat CPU 0 instructions: 40000001 cycles: 60317717 heartbeat IPC: 0.275227 cumulative IPC: 0.281674 (Simulation time: 0 hr 1 min 41 sec) 
Heartbeat CPU 0 instructions: 50000000 cycles: 95484788 heartbeat IPC: 0.284357 cumulative IPC: 0.282741 (Simulation time: 0 hr 2 min 24 sec) 
Finished CPU 0 instructions: 25000000 cycles: 88420148 cumulative IPC: 0.282741 (Simulation time: 0 hr 2 min 24 sec) 

ChampSim completed all CPUs

Region of Interest Statistics

CPU 0 cumulative IPC: 0.282741 instructions: 25000000 cycles: 88420148
ITLB TOTAL     ACCESS:    4438083  HIT:    4438083  MISS:          0  HIT %:        100  MISS %:          0   MPKI: 0
ITLB LOAD TRANSLATION ACCESS:    4438083  HIT:    4438083  MISS:          0  HIT %:        100  MISS %:          0   MPKI: 0
ITLB PREFETCH  REQUESTED:          0  ISSUED:          0  USEFUL:          0  USELESS:          0
ITLB USEFUL LOAD PREFETCHES:          0 PREFETCH ISSUED TO LOWER LEVEL:          0  ACCURACY: -nan
ITLB TIMELY PREFETCHES:          0 LATE PREFETCHES: 0 DROPPED PREFETCHES: 0
ITLB PREFETCHES SAME FILL-ORIGIN LEVEL: 0 DIFFERENT FILL-ORIGIN LEVEL: 0
ITLB AVERAGE MISS LATENCY: -nan cycles
ITLB RQ	ACCESS:    4791814	FORWARD:          0	MERGED:     353731	TO_CACHE:    4438083

DTLB TOTAL     ACCESS:    3715415  HIT:    3052505  MISS:     662910  HIT %:    82.1578  MISS %:    17.8422   MPKI: 26.5164
DTLB LOAD TRANSLATION ACCESS:    3715415  HIT:    3052505  MISS:     662910  HIT %:    82.1578  MISS %:    17.8422   MPKI: 26.5164
DTLB PREFETCH  REQUESTED:          0  ISSUED:          0  USEFUL:          0  USELESS:          0
DTLB USEFUL LOAD PREFETCHES:          0 PREFETCH ISSUED TO LOWER LEVEL:          0  ACCURACY: -nan
DTLB TIMELY PREFETCHES:          0 LATE PREFETCHES: 0 DROPPED PREFETCHES: 0
DTLB PREFETCHES SAME FILL-ORIGIN LEVEL: 0 DIFFERENT FILL-ORIGIN LEVEL: 0
DTLB AVERAGE MISS LATENCY: 54.2885 cycles
DTLB RQ	ACCESS:    4315239	FORWARD:          0	MERGED:     591299	TO_CACHE:    3723940

STLB TOTAL     ACCESS:     664352  HIT:     102321  MISS:     562031  HIT %:    15.4016  MISS %:    84.5984   MPKI: 22.4812
STLB LOAD TRANSLATION ACCESS:     662910  HIT:     100893  MISS:     562017  HIT %:    15.2197  MISS %:    84.7803   MPKI: 22.4807
STLB TRANSLATION FROM L1D PREFETCHER ACCESS:       1442  HIT:       1428  MISS:         14  HIT %:    99.0291  MISS %:   0.970874   MPKI: 0.00056
STLB PREFETCH  REQUESTED:          0  ISSUED:          0  USEFUL:         10  USELESS:          4
STLB USEFUL LOAD PREFETCHES:         10 PREFETCH ISSUED TO LOWER LEVEL:          0  ACCURACY: inf
STLB TIMELY PREFETCHES:         10 LATE PREFETCHES: 0 DROPPED PREFETCHES: 0
STLB PREFETCHES SAME FILL-ORIGIN LEVEL: 0 DIFFERENT FILL-ORIGIN LEVEL: 0
STLB AVERAGE MISS LATENCY: 53.2693 cycles
STLB RQ	ACCESS:     664452	FORWARD:          0	MERGED:         97	TO_CACHE:     664355

STLB Hit, L1D data hit: 0
STLB Hit, L2C data hit: 0
STLB Hit, LLC data hit: 0
STLB Hit, LLC data miss: 0
STLB STLB hints to L2: 0
L1D TOTAL     ACCESS:    4297190  HIT:    3090990  MISS:    1206200  HIT %:    71.9305  MISS %:    28.0695   MPKI: 48.248
L1D LOAD      ACCESS:    3187062  HIT:    2051363  MISS:    1135699  HIT %:    64.3653  MISS %:    35.6347   MPKI: 45.428
L1D RFO       ACCESS:    1108664  HIT:    1039302  MISS:      69362  HIT %:    93.7436  MISS %:    6.25636   MPKI: 2.77448
L1D PREFETCH  ACCESS:       1464  HIT:        325  MISS:       1139  HIT %:    22.1995  MISS %:    77.8005   MPKI: 0.04556
AGUS PREFETCH L1 MISS: 0
L1D PREFETCH  REQUESTED:       3114  ISSUED:       3114  USEFUL:        224  USELESS:        914
L1D USEFUL LOAD PREFETCHES:        224 PREFETCH ISSUED TO LOWER LEVEL:       1157  ACCURACY: 19.3604
L1D TIMELY PREFETCHES:        224 LATE PREFETCHES: 18 DROPPED PREFETCHES: 0
L1D PREFETCHES SAME FILL-ORIGIN LEVEL: 1157 DIFFERENT FILL-ORIGIN LEVEL: 0
L1D AVERAGE MISS LATENCY: 124.622 cycles
L1D RQ	ACCESS:    6162529	FORWARD:          0	MERGED:    2890441	TO_CACHE:    3206573
L1D WQ	ACCESS:    1108674	FORWARD:      65515	MERGED:          8	TO_CACHE:    1108666
L1D PQ	ACCESS:       1575	FORWARD:          0	MERGED:         36	TO_CACHE:       1539

L1D UNIQUE REGIONS ACCESSED: 0
L1D REGIONS CONFLICTS: 0
L1D Cross Page Prefetch Requests: 0
L1D Same Page Prefetch Requests: 7656
L1D ROI Sum of L1D PQ occupancy: 20502
L1D PREFETCHES PUSHED FROM L2C: 0
L1I TOTAL     ACCESS:    4791812  HIT:    4791812  MISS:          0  HIT %:        100  MISS %:          0   MPKI: 0
L1I LOAD      ACCESS:    4791812  HIT:    4791812  MISS:          0  HIT %:        100  MISS %:          0   MPKI: 0
L1I PREFETCH  REQUESTED:          0  ISSUED:          0  USEFUL:          0  USELESS:          0
L1I USEFUL LOAD PREFETCHES:          0 PREFETCH ISSUED TO LOWER LEVEL:          0  ACCURACY: -nan
L1I TIMELY PREFETCHES:          0 LATE PREFETCHES: 0 DROPPED PREFETCHES: 0
L1I PREFETCHES SAME FILL-ORIGIN LEVEL: 0 DIFFERENT FILL-ORIGIN LEVEL: 0
L1I AVERAGE MISS LATENCY: -nan cycles
L1I RQ	ACCESS:    7099195	FORWARD:          0	MERGED:    2307381	TO_CACHE:    4791814

BTB TOTAL     ACCESS:    3283965  HIT:    3283957  MISS:          8  HIT %:    99.9998  MISS %: 0.000243608   MPKI: 0.00032
BTB BRANCH_DIRECT_JUMP	ACCESS:     568311  HIT:     568309  MISS:          2
BTB BRANCH_INDIRECT	ACCESS:          0  HIT:          0  MISS:          0
BTB BRANCH_CONDITIONAL	ACCESS:    1606986  HIT:    1606982  MISS:          4
BTB BRANCH_DIRECT_CALL	ACCESS:     554334  HIT:     554333  MISS:          1
BTB BRANCH_INDIRECT_CALL	ACCESS:          0  HIT:          0  MISS:          0
BTB BRANCH_RETURN	ACCESS:     554334  HIT:     554333  MISS:          1
BTB BRANCH_OTHER ACCESS:          0  HIT:          0  MISS:          0

L2C TOTAL     ACCESS:    2399427  HIT:    1414880  MISS:     984547  HIT %:    58.9674  MISS %:    41.0326   MPKI: 39.3819
L2C LOAD      ACCESS:    1135681  HIT:     417491  MISS:     718190  HIT %:    36.7613  MISS %:    63.2387   MPKI: 28.7276
L2C DATA LOAD MPKI: 28.7276
L2C INSTRUCTION LOAD MPKI: 0
L2C RFO       ACCESS:      69362  HIT:      42297  MISS:      27065  HIT %:    60.9801  MISS %:    39.0199   MPKI: 1.0826
L2C PREFETCH  ACCESS:       1157  HIT:        167  MISS:        990  HIT %:    14.4339  MISS %:    85.5661   MPKI: 0.0396
AGUS PREFETCH L1 MISS: 0
L2C DATA PREFETCH MPKI: 0.0396
L2C INSTRUCTION PREFETCH MPKI: 0
L2C WRITEBACK ACCESS:     554351  HIT:     554351  MISS:          0  HIT %:        100  MISS %:          0   MPKI: 0
L2C LOAD TRANSLATION ACCESS:     638853  HIT:     400555  MISS:     238298  HIT %:    62.6991  MISS %:    37.3009   MPKI: 9.53192
L2C TRANSLATION FROM L1D PREFETCHER ACCESS:         23  HIT:         19  MISS:          4  HIT %:    82.6087  MISS %:    17.3913   MPKI: 0.00016
L2C PREFETCH  REQUESTED:          0  ISSUED:          0  USEFUL:         10  USELESS:       1002
L2C USEFUL LOAD PREFETCHES:         10 PREFETCH ISSUED TO LOWER LEVEL:        990  ACCURACY: 1.0101
L2C TIMELY PREFETCHES:         10 LATE PREFETCHES: 0 DROPPED PREFETCHES: 0
L2C PREFETCHES SAME FILL-ORIGIN LEVEL: 0 DIFFERENT FILL-ORIGIN LEVEL: 0
L2C AVERAGE MISS LATENCY: 142.697 cycles
L2C RQ	ACCESS:    1843920	FORWARD:          0	MERGED:          0	TO_CACHE:    1843920
L2C WQ	ACCESS:     554351	FORWARD:          0	MERGED:          0	TO_CACHE:     554351
L2C PQ	ACCESS:       1157	FORWARD:          0	MERGED:          0	TO_CACHE:       1157

L2C Instructions Evicting Data 0
L2C Translations Evicting Data 142597
L2C Data Evicting Data 603577
L2C Instructions Evicting Instructions 0
L2C Translations Evicting Instructions 0
L2C Data Evicting Instructions 0
L2C Instructions Evicting Translations 0
L2C Translations Evicting Translations 95705
L2C Data Evicting Translations 142668
L2C Dense regions hint from L2: 0
PSCL5 TOTAL     ACCESS:     562032  HIT:     562032  MISS:          0  HIT %:        100  MISS %:          0   MPKI: 0
PSCL5 LOAD TRANSLATION ACCESS:     562018  HIT:     562018  MISS:          0  HIT %:        100  MISS %:          0   MPKI: 0
PSCL5 TRANSLATION FROM L1D PREFETCHER ACCESS:         14  HIT:         14  MISS:          0  HIT %:        100  MISS %:          0   MPKI: 0
PSCL5 PREFETCH  REQUESTED:          0  ISSUED:          0  USEFUL:          0  USELESS:          0
PSCL5 USEFUL LOAD PREFETCHES:          0 PREFETCH ISSUED TO LOWER LEVEL:          0  ACCURACY: -nan
PSCL5 TIMELY PREFETCHES:          0 LATE PREFETCHES: 0 DROPPED PREFETCHES: 0
PSCL5 PREFETCHES SAME FILL-ORIGIN LEVEL: 0 DIFFERENT FILL-ORIGIN LEVEL: 0

PSCL4 TOTAL     ACCESS:     562032  HIT:     562032  MISS:          0  HIT %:        100  MISS %:          0   MPKI: 0
PSCL4 LOAD TRANSLATION ACCESS:     562018  HIT:     562018  MISS:          0  HIT %:        100  MISS %:          0   MPKI: 0
PSCL4 TRANSLATION FROM L1D PREFETCHER ACCESS:         14  HIT:         14  MISS:          0  HIT %:        100  MISS %:          0   MPKI: 0
PSCL4 PREFETCH  REQUESTED:          0  ISSUED:          0  USEFUL:          0  USELESS:          0
PSCL4 USEFUL LOAD PREFETCHES:          0 PREFETCH ISSUED TO LOWER LEVEL:          0  ACCURACY: -nan
PSCL4 TIMELY PREFETCHES:          0 LATE PREFETCHES: 0 DROPPED PREFETCHES: 0
PSCL4 PREFETCHES SAME FILL-ORIGIN LEVEL: 0 DIFFERENT FILL-ORIGIN LEVEL: 0

PSCL3 TOTAL     ACCESS:     562032  HIT:     562032  MISS:          0  HIT %:        100  MISS %:          0   MPKI: 0
PSCL3 LOAD TRANSLATION ACCESS:     562018  HIT:     562018  MISS:          0  HIT %:        100  MISS %:          0   MPKI: 0
PSCL3 TRANSLATION FROM L1D PREFETCHER ACCESS:         14  HIT:         14  MISS:          0  HIT %:        100  MISS %:          0   MPKI: 0
PSCL3 PREFETCH  REQUESTED:          0  ISSUED:          0  USEFUL:          0  USELESS:          0
PSCL3 USEFUL LOAD PREFETCHES:          0 PREFETCH ISSUED TO LOWER LEVEL:          0  ACCURACY: -nan
PSCL3 TIMELY PREFETCHES:          0 LATE PREFETCHES: 0 DROPPED PREFETCHES: 0
PSCL3 PREFETCHES SAME FILL-ORIGIN LEVEL: 0 DIFFERENT FILL-ORIGIN LEVEL: 0

PSCL2 TOTAL     ACCESS:     562032  HIT:     485187  MISS:      76845  HIT %:    86.3273  MISS %:    13.6727   MPKI: 3.0738
PSCL2 LOAD TRANSLATION ACCESS:     562027  HIT:     485182  MISS:      76845  HIT %:    86.3272  MISS %:    13.6728   MPKI: 3.0738
PSCL2 TRANSLATION FROM L1D PREFETCHER ACCESS:          5  HIT:          5  MISS:          0  HIT %:        100  MISS %:          0   MPKI: 0
PSCL2 PREFETCH  REQUESTED:          0  ISSUED:          0  USEFUL:          0  USELESS:          0
PSCL2 USEFUL LOAD PREFETCHES:          0 PREFETCH ISSUED TO LOWER LEVEL:          0  ACCURACY: -nan
PSCL2 TIMELY PREFETCHES:          0 LATE PREFETCHES: 0 DROPPED PREFETCHES: 0
PSCL2 PREFETCHES SAME FILL-ORIGIN LEVEL: 0 DIFFERENT FILL-ORIGIN LEVEL: 0

LLC TOTAL     ACCESS:    1539312  HIT:     888871  MISS:     650441  HIT %:    57.7447  MISS %:    42.2553   MPKI: 26.0176
LLC LOAD      ACCESS:     718190  HIT:      76779  MISS:     641411  HIT %:    10.6906  MISS %:    89.3094   MPKI: 25.6564
LLC RFO       ACCESS:      27065  HIT:      27061  MISS:          4  HIT %:    99.9852  MISS %:  0.0147792   MPKI: 0.00016
LLC PREFETCH  ACCESS:        990  HIT:        369  MISS:        621  HIT %:    37.2727  MISS %:    62.7273   MPKI: 0.02484
AGUS PREFETCH L1 MISS: 0
LLC WRITEBACK ACCESS:     554765  HIT:     554765  MISS:          0  HIT %:        100  MISS %:          0   MPKI: 0
LLC LOAD TRANSLATION ACCESS:     238298  HIT:     229893  MISS:       8405  HIT %:    96.4729  MISS %:     3.5271   MPKI: 0.3362
LLC TRANSLATION FROM L1D PREFETCHER ACCESS:          4  HIT:          4  MISS:          0  HIT %:        100  MISS %:          0   MPKI: 0
LLC PREFETCH  REQUESTED:          0  ISSUED:          0  USEFUL:         19  USELESS:        625
LLC USEFUL LOAD PREFETCHES:         19 PREFETCH ISSUED TO LOWER LEVEL:        621  ACCURACY: 3.05958
LLC TIMELY PREFETCHES:         19 LATE PREFETCHES: 0 DROPPED PREFETCHES: 0
LLC PREFETCHES SAME FILL-ORIGIN LEVEL: 0 DIFFERENT FILL-ORIGIN LEVEL: 0
LLC AVERAGE MISS LATENCY: 170.4 cycles
LLC RQ	ACCESS:     983558	FORWARD:          0	MERGED:          0	TO_CACHE:     983558
LLC WQ	ACCESS:     554765	FORWARD:          0	MERGED:          0	TO_CACHE:     554765
LLC PQ	ACCESS:        990	FORWARD:          0	MERGED:          0	TO_CACHE:        990

LLC Dense regions hint to LLC: 0

RAW hits: 488008
Loads Generated: 6650540
Loads sent to L1D: 6162529
Stores Generated: 1108674
Stores sent to L1D: 1108674
Major fault: 0 Minor fault: 23115
Allocated PAGES: 23115
CPU 0 L1D complex stride prefetcher final stats
Degree: 5

DRAM Statistics
 CHANNEL 0
 RQ ROW_BUFFER_HIT:        773  ROW_BUFFER_MISS:     649668
 DBUS_CONGESTED:          5
 WQ ROW_BUFFER_HIT:     200573  ROW_BUFFER_MISS:     353817  FULL:          0

 AVG_CONGESTED_CYCLE: 5
 All warmup complete: 2
Channel 0 Bank busy for read cycles: 0
Channel 0 Bank busy for write cycles: 0
Channel 0
Rank 0
0banks busy for read cycles: 2802718
0banks busy for write cycles: 64842
1banks busy for read cycles: 20638976
1banks busy for write cycles: 4952948
2banks busy for read cycles: 14358062
2banks busy for write cycles: 7124583
3banks busy for read cycles: 11274592
3banks busy for write cycles: 10278794
4banks busy for read cycles: 3560313
4banks busy for write cycles: 8191303
5banks busy for read cycles: 13502
5banks busy for write cycles: 2991228
6banks busy for read cycles: 239
6banks busy for write cycles: 1151141
7banks busy for read cycles: 0
7banks busy for write cycles: 562204
8banks busy for read cycles: 0
8banks busy for write cycles: 454704

CPU 0 Branch Prediction Accuracy: 99.9685% MPKI: 0.04912 Average ROB Occupancy at Mispredict: 155.883
Branch types
NOT_BRANCH: 21105652 84.4226%
BRANCH_DIRECT_JUMP: 568311 2.27324%
BRANCH_INDIRECT: 0 0%
BRANCH_CONDITIONAL: 2217337 8.86935%
BRANCH_DIRECT_CALL: 554334 2.21734%
BRANCH_INDIRECT_CALL: 0 0%
BRANCH_RETURN: 554334 2.21734%
BRANCH_OTHER: 0 0%

DRAM PAGES: 1048576
Allocated PAGES: 23115
