
*** ChampSim Multicore Out-of-Order Simulator ***

Warmup Instructions: 25000000
Simulation Instructions: 25000000
Number of CPUs: 1
LLC sets: 2048
LLC ways: 16
Off-chip DRAM Size: 4096 MB Channels: 1 Width: 64-bit Data Rate: 6400 MT/s
CPU 0 runs /home/yashas/CS683/pa2-lehra-do-prefetcher-wronganswersonly/traces/trace1.champsimtrace.xz
.xz
CPU 0 Bimodal branch predictor
BTB has LRU replacement policy
ITLB has LRU replacement policy
DTLB has LRU replacement policy
STLB has LRU replacement policy
L1I has LRU replacement policy
CPU 0 L1D IP-based stride prefetcher
L1D has LRU replacement policy
L2C has LRU replacement policy
LLC has LRU replacement policy
Heartbeat CPU 0 instructions: 10000003 cycles: 2830067 heartbeat IPC: 3.53349 cumulative IPC: 3.53349 (Simulation time: 0 hr 0 min 15 sec) 
Heartbeat CPU 0 instructions: 20000003 cycles: 5650330 heartbeat IPC: 3.54577 cumulative IPC: 3.53962 (Simulation time: 0 hr 0 min 30 sec) 

Warmup complete CPU 0 instructions: 25000004 cycles: 7064882 (Simulation time: 0 hr 0 min 38 sec) 

Heartbeat CPU 0 instructions: 30000002 cycles: 23995980 heartbeat IPC: 0.545088 cumulative IPC: 0.295314 (Simulation time: 0 hr 0 min 59 sec) 
Heartbeat CPU 0 instructions: 40000001 cycles: 60337331 heartbeat IPC: 0.275169 cumulative IPC: 0.281571 (Simulation time: 0 hr 1 min 42 sec) 
Heartbeat CPU 0 instructions: 50000000 cycles: 95502782 heartbeat IPC: 0.28437 cumulative IPC: 0.282684 (Simulation time: 0 hr 2 min 24 sec) 
Finished CPU 0 instructions: 25000000 cycles: 88437902 cumulative IPC: 0.282684 (Simulation time: 0 hr 2 min 24 sec) 

ChampSim completed all CPUs

Region of Interest Statistics

CPU 0 cumulative IPC: 0.282684 instructions: 25000000 cycles: 88437902
ITLB TOTAL     ACCESS:    4438056  HIT:    4438056  MISS:          0  HIT %:        100  MISS %:          0   MPKI: 0
ITLB LOAD TRANSLATION ACCESS:    4438056  HIT:    4438056  MISS:          0  HIT %:        100  MISS %:          0   MPKI: 0
ITLB PREFETCH  REQUESTED:          0  ISSUED:          0  USEFUL:          0  USELESS:          0
ITLB USEFUL LOAD PREFETCHES:          0 PREFETCH ISSUED TO LOWER LEVEL:          0  ACCURACY: -nan
ITLB TIMELY PREFETCHES:          0 LATE PREFETCHES: 0 DROPPED PREFETCHES: 0
ITLB PREFETCHES SAME FILL-ORIGIN LEVEL: 0 DIFFERENT FILL-ORIGIN LEVEL: 0
ITLB AVERAGE MISS LATENCY: -nan cycles
ITLB RQ	ACCESS:    4791782	FORWARD:          0	MERGED:     353726	TO_CACHE:    4438056

DTLB TOTAL     ACCESS:    3715457  HIT:    3052547  MISS:     662910  HIT %:     82.158  MISS %:     17.842   MPKI: 26.5164
DTLB LOAD TRANSLATION ACCESS:    3715457  HIT:    3052547  MISS:     662910  HIT %:     82.158  MISS %:     17.842   MPKI: 26.5164
DTLB PREFETCH  REQUESTED:          0  ISSUED:          0  USEFUL:          0  USELESS:          0
DTLB USEFUL LOAD PREFETCHES:          0 PREFETCH ISSUED TO LOWER LEVEL:          0  ACCURACY: -nan
DTLB TIMELY PREFETCHES:          0 LATE PREFETCHES: 0 DROPPED PREFETCHES: 0
DTLB PREFETCHES SAME FILL-ORIGIN LEVEL: 0 DIFFERENT FILL-ORIGIN LEVEL: 0
DTLB AVERAGE MISS LATENCY: 54.2974 cycles
DTLB RQ	ACCESS:    4315306	FORWARD:          0	MERGED:     591330	TO_CACHE:    3723976

STLB TOTAL     ACCESS:     663531  HIT:     101504  MISS:     562027  HIT %:    15.2976  MISS %:    84.7024   MPKI: 22.4811
STLB LOAD TRANSLATION ACCESS:     662910  HIT:     100883  MISS:     562027  HIT %:    15.2182  MISS %:    84.7818   MPKI: 22.4811
STLB TRANSLATION FROM L1D PREFETCHER ACCESS:        621  HIT:        621  MISS:          0  HIT %:        100  MISS %:          0   MPKI: 0
STLB PREFETCH  REQUESTED:          0  ISSUED:          0  USEFUL:          0  USELESS:          0
STLB USEFUL LOAD PREFETCHES:          0 PREFETCH ISSUED TO LOWER LEVEL:          0  ACCURACY: -nan
STLB TIMELY PREFETCHES:          0 LATE PREFETCHES: 0 DROPPED PREFETCHES: 0
STLB PREFETCHES SAME FILL-ORIGIN LEVEL: 0 DIFFERENT FILL-ORIGIN LEVEL: 0
STLB AVERAGE MISS LATENCY: 53.2793 cycles
STLB RQ	ACCESS:     665771	FORWARD:          0	MERGED:       2237	TO_CACHE:     663534

STLB Hit, L1D data hit: 0
STLB Hit, L2C data hit: 0
STLB Hit, LLC data hit: 0
STLB Hit, LLC data miss: 0
STLB STLB hints to L2: 0
L1D TOTAL     ACCESS:    4298601  HIT:    3090165  MISS:    1208436  HIT %:    71.8877  MISS %:    28.1123   MPKI: 48.3374
L1D LOAD      ACCESS:    3187096  HIT:    2050618  MISS:    1136478  HIT %:    64.3413  MISS %:    35.6587   MPKI: 45.4591
L1D RFO       ACCESS:    1108666  HIT:    1039302  MISS:      69364  HIT %:    93.7435  MISS %:    6.25653   MPKI: 2.77456
L1D PREFETCH  ACCESS:       2839  HIT:        245  MISS:       2594  HIT %:     8.6298  MISS %:    91.3702   MPKI: 0.10376
AGUS PREFETCH L1 MISS: 0
L1D PREFETCH  REQUESTED:       5722  ISSUED:       5722  USEFUL:        265  USELESS:       2334
L1D USEFUL LOAD PREFETCHES:        265 PREFETCH ISSUED TO LOWER LEVEL:       2602  ACCURACY: 10.1845
L1D TIMELY PREFETCHES:        265 LATE PREFETCHES: 8 DROPPED PREFETCHES: 0
L1D PREFETCHES SAME FILL-ORIGIN LEVEL: 2602 DIFFERENT FILL-ORIGIN LEVEL: 0
L1D AVERAGE MISS LATENCY: 124.398 cycles
L1D RQ	ACCESS:    6162508	FORWARD:          0	MERGED:    2890377	TO_CACHE:    3206638
L1D WQ	ACCESS:    1108674	FORWARD:      65493	MERGED:          6	TO_CACHE:    1108668
L1D PQ	ACCESS:       2864	FORWARD:          0	MERGED:          6	TO_CACHE:       2858

L1D UNIQUE REGIONS ACCESSED: 0
L1D REGIONS CONFLICTS: 0
L1D Cross Page Prefetch Requests: 0
L1D Same Page Prefetch Requests: 6733
L1D ROI Sum of L1D PQ occupancy: 39388
L1D PREFETCHES PUSHED FROM L2C: 0
L1I TOTAL     ACCESS:    4791780  HIT:    4791780  MISS:          0  HIT %:        100  MISS %:          0   MPKI: 0
L1I LOAD      ACCESS:    4791780  HIT:    4791780  MISS:          0  HIT %:        100  MISS %:          0   MPKI: 0
L1I PREFETCH  REQUESTED:          0  ISSUED:          0  USEFUL:          0  USELESS:          0
L1I USEFUL LOAD PREFETCHES:          0 PREFETCH ISSUED TO LOWER LEVEL:          0  ACCURACY: -nan
L1I TIMELY PREFETCHES:          0 LATE PREFETCHES: 0 DROPPED PREFETCHES: 0
L1I PREFETCHES SAME FILL-ORIGIN LEVEL: 0 DIFFERENT FILL-ORIGIN LEVEL: 0
L1I AVERAGE MISS LATENCY: -nan cycles
L1I RQ	ACCESS:    7099302	FORWARD:          0	MERGED:    2307520	TO_CACHE:    4791782

BTB TOTAL     ACCESS:    3283965  HIT:    3283957  MISS:          8  HIT %:    99.9998  MISS %: 0.000243608   MPKI: 0.00032
BTB BRANCH_DIRECT_JUMP	ACCESS:     568311  HIT:     568309  MISS:          2
BTB BRANCH_INDIRECT	ACCESS:          0  HIT:          0  MISS:          0
BTB BRANCH_CONDITIONAL	ACCESS:    1606986  HIT:    1606982  MISS:          4
BTB BRANCH_DIRECT_CALL	ACCESS:     554334  HIT:     554333  MISS:          1
BTB BRANCH_INDIRECT_CALL	ACCESS:          0  HIT:          0  MISS:          0
BTB BRANCH_RETURN	ACCESS:     554334  HIT:     554333  MISS:          1
BTB BRANCH_OTHER ACCESS:          0  HIT:          0  MISS:          0

L2C TOTAL     ACCESS:    2401651  HIT:    1416699  MISS:     984952  HIT %:    58.9885  MISS %:    41.0115   MPKI: 39.3981
L2C LOAD      ACCESS:    1136470  HIT:     418105  MISS:     718365  HIT %:    36.7898  MISS %:    63.2102   MPKI: 28.7346
L2C DATA LOAD MPKI: 28.7346
L2C INSTRUCTION LOAD MPKI: 0
L2C RFO       ACCESS:      69364  HIT:      42273  MISS:      27091  HIT %:    60.9437  MISS %:    39.0563   MPKI: 1.08364
L2C PREFETCH  ACCESS:       2602  HIT:       1609  MISS:        993  HIT %:     61.837  MISS %:     38.163   MPKI: 0.03972
AGUS PREFETCH L1 MISS: 0
L2C DATA PREFETCH MPKI: 0.03972
L2C INSTRUCTION PREFETCH MPKI: 0
L2C WRITEBACK ACCESS:     554348  HIT:     554348  MISS:          0  HIT %:        100  MISS %:          0   MPKI: 0
L2C LOAD TRANSLATION ACCESS:     638867  HIT:     400364  MISS:     238503  HIT %:    62.6678  MISS %:    37.3322   MPKI: 9.54012
L2C PREFETCH  REQUESTED:          0  ISSUED:          0  USEFUL:          6  USELESS:        986
L2C USEFUL LOAD PREFETCHES:          6 PREFETCH ISSUED TO LOWER LEVEL:        993  ACCURACY: 0.60423
L2C TIMELY PREFETCHES:          6 LATE PREFETCHES: 0 DROPPED PREFETCHES: 0
L2C PREFETCHES SAME FILL-ORIGIN LEVEL: 0 DIFFERENT FILL-ORIGIN LEVEL: 0
L2C AVERAGE MISS LATENCY: 142.614 cycles
L2C RQ	ACCESS:    1844702	FORWARD:          0	MERGED:          0	TO_CACHE:    1844702
L2C WQ	ACCESS:     554348	FORWARD:          0	MERGED:          0	TO_CACHE:     554348
L2C PQ	ACCESS:       2602	FORWARD:          0	MERGED:          0	TO_CACHE:       2602

L2C Instructions Evicting Data 0
L2C Translations Evicting Data 142713
L2C Data Evicting Data 603661
L2C Instructions Evicting Instructions 0
L2C Translations Evicting Instructions 0
L2C Data Evicting Instructions 0
L2C Instructions Evicting Translations 0
L2C Translations Evicting Translations 95790
L2C Data Evicting Translations 142788
L2C Dense regions hint from L2: 0
PSCL5 TOTAL     ACCESS:     562028  HIT:     562028  MISS:          0  HIT %:        100  MISS %:          0   MPKI: 0
PSCL5 LOAD TRANSLATION ACCESS:     562028  HIT:     562028  MISS:          0  HIT %:        100  MISS %:          0   MPKI: 0
PSCL5 PREFETCH  REQUESTED:          0  ISSUED:          0  USEFUL:          0  USELESS:          0
PSCL5 USEFUL LOAD PREFETCHES:          0 PREFETCH ISSUED TO LOWER LEVEL:          0  ACCURACY: -nan
PSCL5 TIMELY PREFETCHES:          0 LATE PREFETCHES: 0 DROPPED PREFETCHES: 0
PSCL5 PREFETCHES SAME FILL-ORIGIN LEVEL: 0 DIFFERENT FILL-ORIGIN LEVEL: 0

PSCL4 TOTAL     ACCESS:     562028  HIT:     562028  MISS:          0  HIT %:        100  MISS %:          0   MPKI: 0
PSCL4 LOAD TRANSLATION ACCESS:     562028  HIT:     562028  MISS:          0  HIT %:        100  MISS %:          0   MPKI: 0
PSCL4 PREFETCH  REQUESTED:          0  ISSUED:          0  USEFUL:          0  USELESS:          0
PSCL4 USEFUL LOAD PREFETCHES:          0 PREFETCH ISSUED TO LOWER LEVEL:          0  ACCURACY: -nan
PSCL4 TIMELY PREFETCHES:          0 LATE PREFETCHES: 0 DROPPED PREFETCHES: 0
PSCL4 PREFETCHES SAME FILL-ORIGIN LEVEL: 0 DIFFERENT FILL-ORIGIN LEVEL: 0

PSCL3 TOTAL     ACCESS:     562028  HIT:     562028  MISS:          0  HIT %:        100  MISS %:          0   MPKI: 0
PSCL3 LOAD TRANSLATION ACCESS:     562028  HIT:     562028  MISS:          0  HIT %:        100  MISS %:          0   MPKI: 0
PSCL3 PREFETCH  REQUESTED:          0  ISSUED:          0  USEFUL:          0  USELESS:          0
PSCL3 USEFUL LOAD PREFETCHES:          0 PREFETCH ISSUED TO LOWER LEVEL:          0  ACCURACY: -nan
PSCL3 TIMELY PREFETCHES:          0 LATE PREFETCHES: 0 DROPPED PREFETCHES: 0
PSCL3 PREFETCHES SAME FILL-ORIGIN LEVEL: 0 DIFFERENT FILL-ORIGIN LEVEL: 0

PSCL2 TOTAL     ACCESS:     562028  HIT:     485188  MISS:      76840  HIT %:    86.3281  MISS %:    13.6719   MPKI: 3.0736
PSCL2 LOAD TRANSLATION ACCESS:     562028  HIT:     485188  MISS:      76840  HIT %:    86.3281  MISS %:    13.6719   MPKI: 3.0736
PSCL2 PREFETCH  REQUESTED:          0  ISSUED:          0  USEFUL:          0  USELESS:          0
PSCL2 USEFUL LOAD PREFETCHES:          0 PREFETCH ISSUED TO LOWER LEVEL:          0  ACCURACY: -nan
PSCL2 TIMELY PREFETCHES:          0 LATE PREFETCHES: 0 DROPPED PREFETCHES: 0
PSCL2 PREFETCHES SAME FILL-ORIGIN LEVEL: 0 DIFFERENT FILL-ORIGIN LEVEL: 0

LLC TOTAL     ACCESS:    1539732  HIT:     889511  MISS:     650221  HIT %:    57.7705  MISS %:    42.2295   MPKI: 26.0088
LLC LOAD      ACCESS:     718365  HIT:      76909  MISS:     641456  HIT %:    10.7061  MISS %:    89.2939   MPKI: 25.6582
LLC RFO       ACCESS:      27091  HIT:      27087  MISS:          4  HIT %:    99.9852  MISS %:  0.0147651   MPKI: 0.00016
LLC PREFETCH  ACCESS:        993  HIT:        629  MISS:        364  HIT %:    63.3434  MISS %:    36.6566   MPKI: 0.01456
AGUS PREFETCH L1 MISS: 0
LLC WRITEBACK ACCESS:     554780  HIT:     554780  MISS:          0  HIT %:        100  MISS %:          0   MPKI: 0
LLC LOAD TRANSLATION ACCESS:     238503  HIT:     230106  MISS:       8397  HIT %:    96.4793  MISS %:    3.52071   MPKI: 0.33588
LLC PREFETCH  REQUESTED:          0  ISSUED:          0  USEFUL:         12  USELESS:        318
LLC USEFUL LOAD PREFETCHES:         12 PREFETCH ISSUED TO LOWER LEVEL:        364  ACCURACY: 3.2967
LLC TIMELY PREFETCHES:         12 LATE PREFETCHES: 0 DROPPED PREFETCHES: 0
LLC PREFETCHES SAME FILL-ORIGIN LEVEL: 0 DIFFERENT FILL-ORIGIN LEVEL: 0
LLC AVERAGE MISS LATENCY: 170.403 cycles
LLC RQ	ACCESS:     983960	FORWARD:          0	MERGED:          0	TO_CACHE:     983960
LLC WQ	ACCESS:     554780	FORWARD:          0	MERGED:          0	TO_CACHE:     554780
LLC PQ	ACCESS:        993	FORWARD:          0	MERGED:          0	TO_CACHE:        993

LLC Dense regions hint to LLC: 0

RAW hits: 488032
Loads Generated: 6650543
Loads sent to L1D: 6162508
Stores Generated: 1108674
Stores sent to L1D: 1108674
Major fault: 0 Minor fault: 23115
Allocated PAGES: 23115
CPU 0 L1D IP-based stride prefetcher final stats
Degree: 5

DRAM Statistics
 CHANNEL 0
 RQ ROW_BUFFER_HIT:        757  ROW_BUFFER_MISS:     649464
 DBUS_CONGESTED:          5
 WQ ROW_BUFFER_HIT:     200409  ROW_BUFFER_MISS:     354048  FULL:          0

 AVG_CONGESTED_CYCLE: 5
 All warmup complete: 2
Channel 0 Bank busy for read cycles: 0
Channel 0 Bank busy for write cycles: 0
Channel 0
Rank 0
0banks busy for read cycles: 2820650
0banks busy for write cycles: 65115
1banks busy for read cycles: 20621274
1banks busy for write cycles: 4967964
2banks busy for read cycles: 14346008
2banks busy for write cycles: 7149843
3banks busy for read cycles: 11272989
3banks busy for write cycles: 10303671
4banks busy for read cycles: 3560292
4banks busy for write cycles: 8199449
5banks busy for read cycles: 14282
5banks busy for write cycles: 2965589
6banks busy for read cycles: 1025
6banks busy for write cycles: 1139472
7banks busy for read cycles: 921
7banks busy for write cycles: 553064
8banks busy for read cycles: 24
8banks busy for write cycles: 456271

CPU 0 Branch Prediction Accuracy: 99.9685% MPKI: 0.04912 Average ROB Occupancy at Mispredict: 155.993
Branch types
NOT_BRANCH: 21105652 84.4226%
BRANCH_DIRECT_JUMP: 568311 2.27324%
BRANCH_INDIRECT: 0 0%
BRANCH_CONDITIONAL: 2217337 8.86935%
BRANCH_DIRECT_CALL: 554334 2.21734%
BRANCH_INDIRECT_CALL: 0 0%
BRANCH_RETURN: 554334 2.21734%
BRANCH_OTHER: 0 0%

DRAM PAGES: 1048576
Allocated PAGES: 23115
