
*** ChampSim Multicore Out-of-Order Simulator ***

Warmup Instructions: 25000000
Simulation Instructions: 25000000
Number of CPUs: 1
LLC sets: 2048
LLC ways: 16
Off-chip DRAM Size: 4096 MB Channels: 1 Width: 64-bit Data Rate: 6400 MT/s
CPU 0 runs /home/yashas/CS683/pa2-lehra-do-prefetcher-wronganswersonly/traces/trace1.champsimtrace.xz
.xz
CPU 0 Bimodal branch predictor
BTB has LRU replacement policy
ITLB has LRU replacement policy
DTLB has LRU replacement policy
STLB has LRU replacement policy
L1I has LRU replacement policy
CPU 0 L1D Optimized prefetcher
L1D has LRU replacement policy
L2C has LRU replacement policy
LLC has LRU replacement policy
Heartbeat CPU 0 instructions: 10000003 cycles: 2830061 heartbeat IPC: 3.53349 cumulative IPC: 3.53349 (Simulation time: 0 hr 0 min 15 sec) 
Heartbeat CPU 0 instructions: 20000003 cycles: 5650207 heartbeat IPC: 3.54592 cumulative IPC: 3.53969 (Simulation time: 0 hr 0 min 29 sec) 

Warmup complete CPU 0 instructions: 25000004 cycles: 7064357 (Simulation time: 0 hr 0 min 37 sec) 

IP_STRIDE Accuracy is 11.1111 
Switching to CPLX L1D prefetcher
Heartbeat CPU 0 instructions: 30000002 cycles: 23983133 heartbeat IPC: 0.545467 cumulative IPC: 0.29553 (Simulation time: 0 hr 0 min 57 sec) 
CPLX Accuracy is 26.6667 
Switching to NL L1D prefetcher
NL Accuracy is 12.5 
Prefetcher set to CPLX
Heartbeat CPU 0 instructions: 40000001 cycles: 60320817 heartbeat IPC: 0.275196 cumulative IPC: 0.281656 (Simulation time: 0 hr 1 min 40 sec) 
Heartbeat CPU 0 instructions: 50000000 cycles: 95507034 heartbeat IPC: 0.284202 cumulative IPC: 0.282669 (Simulation time: 0 hr 2 min 22 sec) 
Finished CPU 0 instructions: 25000000 cycles: 88442679 cumulative IPC: 0.282669 (Simulation time: 0 hr 2 min 22 sec) 

ChampSim completed all CPUs

Region of Interest Statistics

CPU 0 cumulative IPC: 0.282669 instructions: 25000000 cycles: 88442679
ITLB TOTAL     ACCESS:    4438212  HIT:    4438212  MISS:          0  HIT %:        100  MISS %:          0   MPKI: 0
ITLB LOAD TRANSLATION ACCESS:    4438212  HIT:    4438212  MISS:          0  HIT %:        100  MISS %:          0   MPKI: 0
ITLB PREFETCH  REQUESTED:          0  ISSUED:          0  USEFUL:          0  USELESS:          0
ITLB USEFUL LOAD PREFETCHES:          0 PREFETCH ISSUED TO LOWER LEVEL:          0  ACCURACY: -nan
ITLB TIMELY PREFETCHES:          0 LATE PREFETCHES: 0 DROPPED PREFETCHES: 0
ITLB PREFETCHES SAME FILL-ORIGIN LEVEL: 0 DIFFERENT FILL-ORIGIN LEVEL: 0
ITLB AVERAGE MISS LATENCY: -nan cycles
ITLB RQ	ACCESS:    4791870	FORWARD:          0	MERGED:     353658	TO_CACHE:    4438212

DTLB TOTAL     ACCESS:    3715426  HIT:    3052516  MISS:     662910  HIT %:    82.1579  MISS %:    17.8421   MPKI: 26.5164
DTLB LOAD TRANSLATION ACCESS:    3715426  HIT:    3052516  MISS:     662910  HIT %:    82.1579  MISS %:    17.8421   MPKI: 26.5164
DTLB PREFETCH  REQUESTED:          0  ISSUED:          0  USEFUL:          0  USELESS:          0
DTLB USEFUL LOAD PREFETCHES:          0 PREFETCH ISSUED TO LOWER LEVEL:          0  ACCURACY: -nan
DTLB TIMELY PREFETCHES:          0 LATE PREFETCHES: 0 DROPPED PREFETCHES: 0
DTLB PREFETCHES SAME FILL-ORIGIN LEVEL: 0 DIFFERENT FILL-ORIGIN LEVEL: 0
DTLB AVERAGE MISS LATENCY: 54.301 cycles
DTLB RQ	ACCESS:    4315259	FORWARD:          0	MERGED:     591330	TO_CACHE:    3723929

STLB TOTAL     ACCESS:     664480  HIT:     102451  MISS:     562029  HIT %:    15.4182  MISS %:    84.5818   MPKI: 22.4812
STLB LOAD TRANSLATION ACCESS:     662910  HIT:     100885  MISS:     562025  HIT %:    15.2185  MISS %:    84.7815   MPKI: 22.481
STLB TRANSLATION FROM L1D PREFETCHER ACCESS:       1570  HIT:       1566  MISS:          4  HIT %:    99.7452  MISS %:   0.254777   MPKI: 0.00016
STLB PREFETCH  REQUESTED:          0  ISSUED:          0  USEFUL:          0  USELESS:          4
STLB USEFUL LOAD PREFETCHES:          0 PREFETCH ISSUED TO LOWER LEVEL:          0  ACCURACY: -nan
STLB TIMELY PREFETCHES:          0 LATE PREFETCHES: 0 DROPPED PREFETCHES: 0
STLB PREFETCHES SAME FILL-ORIGIN LEVEL: 0 DIFFERENT FILL-ORIGIN LEVEL: 0
STLB AVERAGE MISS LATENCY: 53.2848 cycles
STLB RQ	ACCESS:     664846	FORWARD:          0	MERGED:        362	TO_CACHE:     664484

STLB Hit, L1D data hit: 0
STLB Hit, L2C data hit: 0
STLB Hit, LLC data hit: 0
STLB Hit, LLC data miss: 0
STLB STLB hints to L2: 0
L1D TOTAL     ACCESS:    4297520  HIT:    3091005  MISS:    1206515  HIT %:    71.9253  MISS %:    28.0747   MPKI: 48.2606
L1D LOAD      ACCESS:    3187040  HIT:    2051480  MISS:    1135560  HIT %:    64.3694  MISS %:    35.6306   MPKI: 45.4224
L1D RFO       ACCESS:    1108664  HIT:    1039301  MISS:      69363  HIT %:    93.7436  MISS %:    6.25645   MPKI: 2.77452
L1D PREFETCH  ACCESS:       1816  HIT:        224  MISS:       1592  HIT %:    12.3348  MISS %:    87.6652   MPKI: 0.06368
AGUS PREFETCH L1 MISS: 0
L1D PREFETCH  REQUESTED:       3921  ISSUED:       3921  USEFUL:        348  USELESS:       1242
L1D USEFUL LOAD PREFETCHES:        348 PREFETCH ISSUED TO LOWER LEVEL:       1623  ACCURACY: 21.4418
L1D TIMELY PREFETCHES:        348 LATE PREFETCHES: 31 DROPPED PREFETCHES: 0
L1D PREFETCHES SAME FILL-ORIGIN LEVEL: 1623 DIFFERENT FILL-ORIGIN LEVEL: 0
L1D AVERAGE MISS LATENCY: 124.625 cycles
L1D RQ	ACCESS:    6162507	FORWARD:          0	MERGED:    2890421	TO_CACHE:    3206593
L1D WQ	ACCESS:    1108674	FORWARD:      65493	MERGED:          8	TO_CACHE:    1108666
L1D PQ	ACCESS:       1988	FORWARD:          0	MERGED:         55	TO_CACHE:       1933

L1D UNIQUE REGIONS ACCESSED: 0
L1D REGIONS CONFLICTS: 0
L1D Cross Page Prefetch Requests: 0
L1D Same Page Prefetch Requests: 1988
L1D ROI Sum of L1D PQ occupancy: 26021
L1D PREFETCHES PUSHED FROM L2C: 0
L1I TOTAL     ACCESS:    4791868  HIT:    4791868  MISS:          0  HIT %:        100  MISS %:          0   MPKI: 0
L1I LOAD      ACCESS:    4791868  HIT:    4791868  MISS:          0  HIT %:        100  MISS %:          0   MPKI: 0
L1I PREFETCH  REQUESTED:          0  ISSUED:          0  USEFUL:          0  USELESS:          0
L1I USEFUL LOAD PREFETCHES:          0 PREFETCH ISSUED TO LOWER LEVEL:          0  ACCURACY: -nan
L1I TIMELY PREFETCHES:          0 LATE PREFETCHES: 0 DROPPED PREFETCHES: 0
L1I PREFETCHES SAME FILL-ORIGIN LEVEL: 0 DIFFERENT FILL-ORIGIN LEVEL: 0
L1I AVERAGE MISS LATENCY: -nan cycles
L1I RQ	ACCESS:    7099381	FORWARD:          0	MERGED:    2307511	TO_CACHE:    4791870

BTB TOTAL     ACCESS:    3283965  HIT:    3283957  MISS:          8  HIT %:    99.9998  MISS %: 0.000243608   MPKI: 0.00032
BTB BRANCH_DIRECT_JUMP	ACCESS:     568311  HIT:     568309  MISS:          2
BTB BRANCH_INDIRECT	ACCESS:          0  HIT:          0  MISS:          0
BTB BRANCH_CONDITIONAL	ACCESS:    1606986  HIT:    1606982  MISS:          4
BTB BRANCH_DIRECT_CALL	ACCESS:     554334  HIT:     554333  MISS:          1
BTB BRANCH_INDIRECT_CALL	ACCESS:          0  HIT:          0  MISS:          0
BTB BRANCH_RETURN	ACCESS:     554334  HIT:     554333  MISS:          1
BTB BRANCH_OTHER ACCESS:          0  HIT:          0  MISS:          0

L2C TOTAL     ACCESS:    2399737  HIT:    1414609  MISS:     985128  HIT %:    58.9485  MISS %:    41.0515   MPKI: 39.4051
L2C LOAD      ACCESS:    1135529  HIT:     417308  MISS:     718221  HIT %:    36.7501  MISS %:    63.2499   MPKI: 28.7288
L2C DATA LOAD MPKI: 28.7288
L2C INSTRUCTION LOAD MPKI: 0
L2C RFO       ACCESS:      69363  HIT:      42280  MISS:      27083  HIT %:    60.9547  MISS %:    39.0453   MPKI: 1.08332
L2C PREFETCH  ACCESS:       1623  HIT:        333  MISS:       1290  HIT %:    20.5176  MISS %:    79.4824   MPKI: 0.0516
AGUS PREFETCH L1 MISS: 0
L2C DATA PREFETCH MPKI: 0.0516
L2C INSTRUCTION PREFETCH MPKI: 0
L2C WRITEBACK ACCESS:     554350  HIT:     554350  MISS:          0  HIT %:        100  MISS %:          0   MPKI: 0
L2C LOAD TRANSLATION ACCESS:     638864  HIT:     400334  MISS:     238530  HIT %:    62.6634  MISS %:    37.3366   MPKI: 9.5412
L2C TRANSLATION FROM L1D PREFETCHER ACCESS:          8  HIT:          4  MISS:          4  HIT %:         50  MISS %:         50   MPKI: 0.00016
L2C PREFETCH  REQUESTED:          0  ISSUED:          0  USEFUL:         11  USELESS:       1273
L2C USEFUL LOAD PREFETCHES:         11 PREFETCH ISSUED TO LOWER LEVEL:       1290  ACCURACY: 0.852713
L2C TIMELY PREFETCHES:         11 LATE PREFETCHES: 0 DROPPED PREFETCHES: 0
L2C PREFETCHES SAME FILL-ORIGIN LEVEL: 0 DIFFERENT FILL-ORIGIN LEVEL: 0
L2C AVERAGE MISS LATENCY: 142.659 cycles
L2C RQ	ACCESS:    1843765	FORWARD:          0	MERGED:          0	TO_CACHE:    1843765
L2C WQ	ACCESS:     554350	FORWARD:          0	MERGED:          0	TO_CACHE:     554350
L2C PQ	ACCESS:       1623	FORWARD:          0	MERGED:          0	TO_CACHE:       1623

L2C Instructions Evicting Data 0
L2C Translations Evicting Data 142779
L2C Data Evicting Data 603740
L2C Instructions Evicting Instructions 0
L2C Translations Evicting Instructions 0
L2C Data Evicting Instructions 0
L2C Instructions Evicting Translations 0
L2C Translations Evicting Translations 95755
L2C Data Evicting Translations 142854
L2C Dense regions hint from L2: 0
PSCL5 TOTAL     ACCESS:     562030  HIT:     562030  MISS:          0  HIT %:        100  MISS %:          0   MPKI: 0
PSCL5 LOAD TRANSLATION ACCESS:     562026  HIT:     562026  MISS:          0  HIT %:        100  MISS %:          0   MPKI: 0
PSCL5 TRANSLATION FROM L1D PREFETCHER ACCESS:          4  HIT:          4  MISS:          0  HIT %:        100  MISS %:          0   MPKI: 0
PSCL5 PREFETCH  REQUESTED:          0  ISSUED:          0  USEFUL:          0  USELESS:          0
PSCL5 USEFUL LOAD PREFETCHES:          0 PREFETCH ISSUED TO LOWER LEVEL:          0  ACCURACY: -nan
PSCL5 TIMELY PREFETCHES:          0 LATE PREFETCHES: 0 DROPPED PREFETCHES: 0
PSCL5 PREFETCHES SAME FILL-ORIGIN LEVEL: 0 DIFFERENT FILL-ORIGIN LEVEL: 0

PSCL4 TOTAL     ACCESS:     562030  HIT:     562030  MISS:          0  HIT %:        100  MISS %:          0   MPKI: 0
PSCL4 LOAD TRANSLATION ACCESS:     562026  HIT:     562026  MISS:          0  HIT %:        100  MISS %:          0   MPKI: 0
PSCL4 TRANSLATION FROM L1D PREFETCHER ACCESS:          4  HIT:          4  MISS:          0  HIT %:        100  MISS %:          0   MPKI: 0
PSCL4 PREFETCH  REQUESTED:          0  ISSUED:          0  USEFUL:          0  USELESS:          0
PSCL4 USEFUL LOAD PREFETCHES:          0 PREFETCH ISSUED TO LOWER LEVEL:          0  ACCURACY: -nan
PSCL4 TIMELY PREFETCHES:          0 LATE PREFETCHES: 0 DROPPED PREFETCHES: 0
PSCL4 PREFETCHES SAME FILL-ORIGIN LEVEL: 0 DIFFERENT FILL-ORIGIN LEVEL: 0

PSCL3 TOTAL     ACCESS:     562030  HIT:     562030  MISS:          0  HIT %:        100  MISS %:          0   MPKI: 0
PSCL3 LOAD TRANSLATION ACCESS:     562026  HIT:     562026  MISS:          0  HIT %:        100  MISS %:          0   MPKI: 0
PSCL3 TRANSLATION FROM L1D PREFETCHER ACCESS:          4  HIT:          4  MISS:          0  HIT %:        100  MISS %:          0   MPKI: 0
PSCL3 PREFETCH  REQUESTED:          0  ISSUED:          0  USEFUL:          0  USELESS:          0
PSCL3 USEFUL LOAD PREFETCHES:          0 PREFETCH ISSUED TO LOWER LEVEL:          0  ACCURACY: -nan
PSCL3 TIMELY PREFETCHES:          0 LATE PREFETCHES: 0 DROPPED PREFETCHES: 0
PSCL3 PREFETCHES SAME FILL-ORIGIN LEVEL: 0 DIFFERENT FILL-ORIGIN LEVEL: 0

PSCL2 TOTAL     ACCESS:     562030  HIT:     485187  MISS:      76843  HIT %:    86.3276  MISS %:    13.6724   MPKI: 3.07372
PSCL2 LOAD TRANSLATION ACCESS:     562030  HIT:     485187  MISS:      76843  HIT %:    86.3276  MISS %:    13.6724   MPKI: 3.07372
PSCL2 PREFETCH  REQUESTED:          0  ISSUED:          0  USEFUL:          0  USELESS:          0
PSCL2 USEFUL LOAD PREFETCHES:          0 PREFETCH ISSUED TO LOWER LEVEL:          0  ACCURACY: -nan
PSCL2 TIMELY PREFETCHES:          0 LATE PREFETCHES: 0 DROPPED PREFETCHES: 0
PSCL2 PREFETCHES SAME FILL-ORIGIN LEVEL: 0 DIFFERENT FILL-ORIGIN LEVEL: 0

LLC TOTAL     ACCESS:    1539914  HIT:     889334  MISS:     650580  HIT %:    57.7522  MISS %:    42.2478   MPKI: 26.0232
LLC LOAD      ACCESS:     718221  HIT:      76826  MISS:     641395  HIT %:    10.6967  MISS %:    89.3033   MPKI: 25.6558
LLC RFO       ACCESS:      27083  HIT:      27079  MISS:          4  HIT %:    99.9852  MISS %:  0.0147694   MPKI: 0.00016
LLC PREFETCH  ACCESS:       1290  HIT:        520  MISS:        770  HIT %:    40.3101  MISS %:    59.6899   MPKI: 0.0308
AGUS PREFETCH L1 MISS: 0
LLC WRITEBACK ACCESS:     554786  HIT:     554786  MISS:          0  HIT %:        100  MISS %:          0   MPKI: 0
LLC LOAD TRANSLATION ACCESS:     238530  HIT:     230119  MISS:       8411  HIT %:    96.4738  MISS %:    3.52618   MPKI: 0.33644
LLC TRANSLATION FROM L1D PREFETCHER ACCESS:          4  HIT:          4  MISS:          0  HIT %:        100  MISS %:          0   MPKI: 0
LLC PREFETCH  REQUESTED:          0  ISSUED:          0  USEFUL:         70  USELESS:        628
LLC USEFUL LOAD PREFETCHES:         70 PREFETCH ISSUED TO LOWER LEVEL:        770  ACCURACY: 9.09091
LLC TIMELY PREFETCHES:         70 LATE PREFETCHES: 0 DROPPED PREFETCHES: 0
LLC PREFETCHES SAME FILL-ORIGIN LEVEL: 0 DIFFERENT FILL-ORIGIN LEVEL: 0
LLC AVERAGE MISS LATENCY: 170.406 cycles
LLC RQ	ACCESS:     983839	FORWARD:          0	MERGED:          0	TO_CACHE:     983839
LLC WQ	ACCESS:     554786	FORWARD:          0	MERGED:          0	TO_CACHE:     554786
LLC PQ	ACCESS:       1290	FORWARD:          0	MERGED:          0	TO_CACHE:       1290

LLC Dense regions hint to LLC: 0

RAW hits: 488030
Loads Generated: 6650540
Loads sent to L1D: 6162507
Stores Generated: 1108674
Stores sent to L1D: 1108674
Major fault: 0 Minor fault: 23115
Allocated PAGES: 23115
CPU 0 L1D optimized prefetcher final stats
Degree: 5

DRAM Statistics
 CHANNEL 0
 RQ ROW_BUFFER_HIT:        789  ROW_BUFFER_MISS:     649791
 DBUS_CONGESTED:          5
 WQ ROW_BUFFER_HIT:     200714  ROW_BUFFER_MISS:     353786  FULL:          0

 AVG_CONGESTED_CYCLE: 5
 All warmup complete: 2
Channel 0 Bank busy for read cycles: 0
Channel 0 Bank busy for write cycles: 0
Channel 0
Rank 0
0banks busy for read cycles: 2809263
0banks busy for write cycles: 64847
1banks busy for read cycles: 20654574
1banks busy for write cycles: 4952135
2banks busy for read cycles: 14355902
2banks busy for write cycles: 7133107
3banks busy for read cycles: 11274471
3banks busy for write cycles: 10266028
4banks busy for read cycles: 3560994
4banks busy for write cycles: 8192061
5banks busy for read cycles: 14309
5banks busy for write cycles: 2984164
6banks busy for read cycles: 217
6banks busy for write cycles: 1152208
7banks busy for read cycles: 61
7banks busy for write cycles: 564663
8banks busy for read cycles: 143
8banks busy for write cycles: 463533

CPU 0 Branch Prediction Accuracy: 99.9685% MPKI: 0.04912 Average ROB Occupancy at Mispredict: 155.911
Branch types
NOT_BRANCH: 21105652 84.4226%
BRANCH_DIRECT_JUMP: 568311 2.27324%
BRANCH_INDIRECT: 0 0%
BRANCH_CONDITIONAL: 2217337 8.86935%
BRANCH_DIRECT_CALL: 554334 2.21734%
BRANCH_INDIRECT_CALL: 0 0%
BRANCH_RETURN: 554334 2.21734%
BRANCH_OTHER: 0 0%

DRAM PAGES: 1048576
Allocated PAGES: 23115
