
*** ChampSim Multicore Out-of-Order Simulator ***

Warmup Instructions: 25000000
Simulation Instructions: 25000000
Number of CPUs: 1
LLC sets: 2048
LLC ways: 16
Off-chip DRAM Size: 4096 MB Channels: 1 Width: 64-bit Data Rate: 6400 MT/s
CPU 0 runs /home/yashas/CS683/pa2-lehra-do-prefetcher-wronganswersonly/traces/trace2.champsimtrace.xz
.xz
CPU 0 Bimodal branch predictor
BTB has LRU replacement policy
ITLB has LRU replacement policy
DTLB has LRU replacement policy
STLB has LRU replacement policy
L1I has LRU replacement policy
CPU 0 L1D Optimized prefetcher
L1D has LRU replacement policy
L2C has LRU replacement policy
LLC has LRU replacement policy
Heartbeat CPU 0 instructions: 10000002 cycles: 3798770 heartbeat IPC: 2.63243 cumulative IPC: 2.63243 (Simulation time: 0 hr 0 min 16 sec) 
Heartbeat CPU 0 instructions: 20000001 cycles: 7599889 heartbeat IPC: 2.6308 cumulative IPC: 2.63162 (Simulation time: 0 hr 0 min 32 sec) 

Warmup complete CPU 0 instructions: 25000001 cycles: 9499594 (Simulation time: 0 hr 0 min 39 sec) 

IP_STRIDE Accuracy is 27.0165 
Switching to CPLX L1D prefetcher
CPLX Accuracy is 80.1961 
Switching to NL L1D prefetcher
NL Accuracy is 257.227 
Prefetcher set to NL
Heartbeat CPU 0 instructions: 30000001 cycles: 24564196 heartbeat IPC: 0.589473 cumulative IPC: 0.331904 (Simulation time: 0 hr 0 min 57 sec) 
Heartbeat CPU 0 instructions: 40000002 cycles: 51622409 heartbeat IPC: 0.369574 cumulative IPC: 0.356102 (Simulation time: 0 hr 1 min 29 sec) 
Heartbeat CPU 0 instructions: 50000000 cycles: 78190955 heartbeat IPC: 0.376385 cumulative IPC: 0.363947 (Simulation time: 0 hr 2 min 2 sec) 
Finished CPU 0 instructions: 25000000 cycles: 68691383 cumulative IPC: 0.363947 (Simulation time: 0 hr 2 min 2 sec) 

ChampSim completed all CPUs

Region of Interest Statistics

CPU 0 cumulative IPC: 0.363947 instructions: 25000000 cycles: 68691383
ITLB TOTAL     ACCESS:    4566494  HIT:    4566494  MISS:          0  HIT %:        100  MISS %:          0   MPKI: 0
ITLB LOAD TRANSLATION ACCESS:    4566494  HIT:    4566494  MISS:          0  HIT %:        100  MISS %:          0   MPKI: 0
ITLB PREFETCH  REQUESTED:          0  ISSUED:          0  USEFUL:          0  USELESS:          0
ITLB USEFUL LOAD PREFETCHES:          0 PREFETCH ISSUED TO LOWER LEVEL:          0  ACCURACY: -nan
ITLB TIMELY PREFETCHES:          0 LATE PREFETCHES: 0 DROPPED PREFETCHES: 0
ITLB PREFETCHES SAME FILL-ORIGIN LEVEL: 0 DIFFERENT FILL-ORIGIN LEVEL: 0
ITLB AVERAGE MISS LATENCY: -nan cycles
ITLB RQ	ACCESS:    4651907	FORWARD:          0	MERGED:      85413	TO_CACHE:    4566494

DTLB TOTAL     ACCESS:    3869370  HIT:    3835356  MISS:      34014  HIT %:    99.1209  MISS %:   0.879058   MPKI: 1.36056
DTLB LOAD TRANSLATION ACCESS:    3869370  HIT:    3835356  MISS:      34014  HIT %:    99.1209  MISS %:   0.879058   MPKI: 1.36056
DTLB PREFETCH  REQUESTED:          0  ISSUED:          0  USEFUL:          0  USELESS:          0
DTLB USEFUL LOAD PREFETCHES:          0 PREFETCH ISSUED TO LOWER LEVEL:          0  ACCURACY: -nan
DTLB TIMELY PREFETCHES:          0 LATE PREFETCHES: 0 DROPPED PREFETCHES: 0
DTLB PREFETCHES SAME FILL-ORIGIN LEVEL: 0 DIFFERENT FILL-ORIGIN LEVEL: 0
DTLB AVERAGE MISS LATENCY: 107.719 cycles
DTLB RQ	ACCESS:    4554056	FORWARD:          0	MERGED:     684556	TO_CACHE:    3869500

STLB TOTAL     ACCESS:    3031392  HIT:    2998731  MISS:      32661  HIT %:    98.9226  MISS %:    1.07743   MPKI: 1.30644
STLB LOAD TRANSLATION ACCESS:      34014  HIT:       1361  MISS:      32653  HIT %:    4.00129  MISS %:    95.9987   MPKI: 1.30612
STLB TRANSLATION FROM L1D PREFETCHER ACCESS:    2997378  HIT:    2997370  MISS:          8  HIT %:    99.9997  MISS %:  0.0002669   MPKI: 0.00032
STLB PREFETCH  REQUESTED:          0  ISSUED:          0  USEFUL:          8  USELESS:          0
STLB USEFUL LOAD PREFETCHES:          8 PREFETCH ISSUED TO LOWER LEVEL:          0  ACCURACY: inf
STLB TIMELY PREFETCHES:          8 LATE PREFETCHES: 0 DROPPED PREFETCHES: 0
STLB PREFETCHES SAME FILL-ORIGIN LEVEL: 0 DIFFERENT FILL-ORIGIN LEVEL: 0
STLB AVERAGE MISS LATENCY: 102.898 cycles
STLB RQ	ACCESS:   14483819	FORWARD:          0	MERGED:   11452425	TO_CACHE:    3031394

STLB Hit, L1D data hit: 0
STLB Hit, L2C data hit: 0
STLB Hit, LLC data hit: 0
STLB Hit, LLC data miss: 0
STLB STLB hints to L2: 0
L1D TOTAL     ACCESS:   11250877  HIT:    9419660  MISS:    1831217  HIT %:    83.7238  MISS %:    16.2762   MPKI: 73.2487
L1D LOAD      ACCESS:    4202051  HIT:    3912376  MISS:     289675  HIT %:    93.1063  MISS %:    6.89366   MPKI: 11.587
L1D RFO       ACCESS:     333322  HIT:     333302  MISS:         20  HIT %:     99.994  MISS %:  0.0060002   MPKI: 0.0008
L1D PREFETCH  ACCESS:    6715504  HIT:    5173982  MISS:    1541522  HIT %:    77.0453  MISS %:    22.9547   MPKI: 61.6609
AGUS PREFETCH L1 MISS: 0
L1D PREFETCH  REQUESTED:   34472591  ISSUED:   34443528  USEFUL:    1465020  USELESS:      76410
L1D USEFUL LOAD PREFETCHES:    1465020 PREFETCH ISSUED TO LOWER LEVEL:    1775671  ACCURACY: 82.5051
L1D TIMELY PREFETCHES:    1465020 LATE PREFETCHES: 234148 DROPPED PREFETCHES: 0
L1D PREFETCHES SAME FILL-ORIGIN LEVEL: 1775671 DIFFERENT FILL-ORIGIN LEVEL: 0
L1D AVERAGE MISS LATENCY: 120.512 cycles
L1D RQ	ACCESS:    8972962	FORWARD:          0	MERGED:    4750675	TO_CACHE:    4220730
L1D WQ	ACCESS:     370377	FORWARD:       1557	MERGED:      37051	TO_CACHE:     333326
L1D PQ	ACCESS:   19993723	FORWARD:          0	MERGED:    5543918	TO_CACHE:   14449805

L1D UNIQUE REGIONS ACCESSED: 0
L1D REGIONS CONFLICTS: 0
L1D Cross Page Prefetch Requests: 0
L1D Same Page Prefetch Requests: 19993723
L1D ROI Sum of L1D PQ occupancy: 202955281
L1D PREFETCHES PUSHED FROM L2C: 0
L1I TOTAL     ACCESS:    4651906  HIT:    4651906  MISS:          0  HIT %:        100  MISS %:          0   MPKI: 0
L1I LOAD      ACCESS:    4651906  HIT:    4651906  MISS:          0  HIT %:        100  MISS %:          0   MPKI: 0
L1I PREFETCH  REQUESTED:          0  ISSUED:          0  USEFUL:          0  USELESS:          0
L1I USEFUL LOAD PREFETCHES:          0 PREFETCH ISSUED TO LOWER LEVEL:          0  ACCURACY: -nan
L1I TIMELY PREFETCHES:          0 LATE PREFETCHES: 0 DROPPED PREFETCHES: 0
L1I PREFETCHES SAME FILL-ORIGIN LEVEL: 0 DIFFERENT FILL-ORIGIN LEVEL: 0
L1I AVERAGE MISS LATENCY: -nan cycles
L1I RQ	ACCESS:    6979585	FORWARD:          0	MERGED:    2327678	TO_CACHE:    4651907

BTB TOTAL     ACCESS:    5953193  HIT:    5953095  MISS:         98  HIT %:    99.9984  MISS %: 0.00164618   MPKI: 0.00392
BTB BRANCH_DIRECT_JUMP	ACCESS:      85874  HIT:      85848  MISS:         26
BTB BRANCH_INDIRECT	ACCESS:          0  HIT:          0  MISS:          0
BTB BRANCH_CONDITIONAL	ACCESS:    5783213  HIT:    5783164  MISS:         49
BTB BRANCH_DIRECT_CALL	ACCESS:      42053  HIT:      42043  MISS:         10
BTB BRANCH_INDIRECT_CALL	ACCESS:          0  HIT:          0  MISS:          0
BTB BRANCH_RETURN	ACCESS:      42053  HIT:      42040  MISS:         13
BTB BRANCH_OTHER ACCESS:          0  HIT:          0  MISS:          0

L2C TOTAL     ACCESS:    1867319  HIT:      66611  MISS:    1800708  HIT %:     3.5672  MISS %:    96.4328   MPKI: 72.0283
L2C LOAD      ACCESS:      55527  HIT:       5726  MISS:      49801  HIT %:    10.3121  MISS %:    89.6879   MPKI: 1.99204
L2C DATA LOAD MPKI: 1.99204
L2C INSTRUCTION LOAD MPKI: 0
L2C RFO       ACCESS:         19  HIT:          0  MISS:         19  HIT %:          0  MISS %:        100   MPKI: 0.00076
L2C PREFETCH  ACCESS:    1775671  HIT:      32255  MISS:    1743416  HIT %:     1.8165  MISS %:    98.1835   MPKI: 69.7366
AGUS PREFETCH L1 MISS: 0
L2C DATA PREFETCH MPKI: 69.7366
L2C INSTRUCTION PREFETCH MPKI: 0
L2C WRITEBACK ACCESS:       2818  HIT:       2796  MISS:         22  HIT %:    99.2193  MISS %:   0.780696   MPKI: 0.00088
L2C LOAD TRANSLATION ACCESS:      33270  HIT:      25833  MISS:       7437  HIT %:    77.6465  MISS %:    22.3535   MPKI: 0.29748
L2C TRANSLATION FROM L1D PREFETCHER ACCESS:         14  HIT:          1  MISS:         13  HIT %:    7.14286  MISS %:    92.8571   MPKI: 0.00052
L2C PREFETCH  REQUESTED:          0  ISSUED:          0  USEFUL:       1691  USELESS:    1733774
L2C USEFUL LOAD PREFETCHES:       1691 PREFETCH ISSUED TO LOWER LEVEL:    1743416  ACCURACY: 0.0969935
L2C TIMELY PREFETCHES:       1691 LATE PREFETCHES: 0 DROPPED PREFETCHES: 0
L2C PREFETCHES SAME FILL-ORIGIN LEVEL: 0 DIFFERENT FILL-ORIGIN LEVEL: 0
L2C AVERAGE MISS LATENCY: 107.904 cycles
L2C RQ	ACCESS:      88829	FORWARD:          0	MERGED:          0	TO_CACHE:      88829
L2C WQ	ACCESS:       2818	FORWARD:          0	MERGED:          0	TO_CACHE:       2818
L2C PQ	ACCESS:    1775671	FORWARD:          0	MERGED:          0	TO_CACHE:    1775671

L2C Instructions Evicting Data 0
L2C Translations Evicting Data 7420
L2C Data Evicting Data 1785829
L2C Instructions Evicting Instructions 0
L2C Translations Evicting Instructions 0
L2C Data Evicting Instructions 0
L2C Instructions Evicting Translations 0
L2C Translations Evicting Translations 30
L2C Data Evicting Translations 7407
L2C Dense regions hint from L2: 0
PSCL5 TOTAL     ACCESS:      32661  HIT:      32661  MISS:          0  HIT %:        100  MISS %:          0   MPKI: 0
PSCL5 LOAD TRANSLATION ACCESS:      32653  HIT:      32653  MISS:          0  HIT %:        100  MISS %:          0   MPKI: 0
PSCL5 TRANSLATION FROM L1D PREFETCHER ACCESS:          8  HIT:          8  MISS:          0  HIT %:        100  MISS %:          0   MPKI: 0
PSCL5 PREFETCH  REQUESTED:          0  ISSUED:          0  USEFUL:          0  USELESS:          0
PSCL5 USEFUL LOAD PREFETCHES:          0 PREFETCH ISSUED TO LOWER LEVEL:          0  ACCURACY: -nan
PSCL5 TIMELY PREFETCHES:          0 LATE PREFETCHES: 0 DROPPED PREFETCHES: 0
PSCL5 PREFETCHES SAME FILL-ORIGIN LEVEL: 0 DIFFERENT FILL-ORIGIN LEVEL: 0

PSCL4 TOTAL     ACCESS:      32661  HIT:      32661  MISS:          0  HIT %:        100  MISS %:          0   MPKI: 0
PSCL4 LOAD TRANSLATION ACCESS:      32653  HIT:      32653  MISS:          0  HIT %:        100  MISS %:          0   MPKI: 0
PSCL4 TRANSLATION FROM L1D PREFETCHER ACCESS:          8  HIT:          8  MISS:          0  HIT %:        100  MISS %:          0   MPKI: 0
PSCL4 PREFETCH  REQUESTED:          0  ISSUED:          0  USEFUL:          0  USELESS:          0
PSCL4 USEFUL LOAD PREFETCHES:          0 PREFETCH ISSUED TO LOWER LEVEL:          0  ACCURACY: -nan
PSCL4 TIMELY PREFETCHES:          0 LATE PREFETCHES: 0 DROPPED PREFETCHES: 0
PSCL4 PREFETCHES SAME FILL-ORIGIN LEVEL: 0 DIFFERENT FILL-ORIGIN LEVEL: 0

PSCL3 TOTAL     ACCESS:      32490  HIT:      32487  MISS:          3  HIT %:    99.9908  MISS %: 0.00923361   MPKI: 0.00012
PSCL3 LOAD TRANSLATION ACCESS:      32483  HIT:      32480  MISS:          3  HIT %:    99.9908  MISS %:  0.0092356   MPKI: 0.00012
PSCL3 TRANSLATION FROM L1D PREFETCHER ACCESS:          7  HIT:          7  MISS:          0  HIT %:        100  MISS %:          0   MPKI: 0
PSCL3 PREFETCH  REQUESTED:          0  ISSUED:          0  USEFUL:          0  USELESS:          0
PSCL3 USEFUL LOAD PREFETCHES:          0 PREFETCH ISSUED TO LOWER LEVEL:          0  ACCURACY: -nan
PSCL3 TIMELY PREFETCHES:          0 LATE PREFETCHES: 0 DROPPED PREFETCHES: 0
PSCL3 PREFETCHES SAME FILL-ORIGIN LEVEL: 0 DIFFERENT FILL-ORIGIN LEVEL: 0

PSCL2 TOTAL     ACCESS:      32661  HIT:      31943  MISS:        718  HIT %:    97.8017  MISS %:    2.19834   MPKI: 0.02872
PSCL2 LOAD TRANSLATION ACCESS:      32658  HIT:      31940  MISS:        718  HIT %:    97.8015  MISS %:    2.19854   MPKI: 0.02872
PSCL2 TRANSLATION FROM L1D PREFETCHER ACCESS:          3  HIT:          3  MISS:          0  HIT %:        100  MISS %:          0   MPKI: 0
PSCL2 PREFETCH  REQUESTED:          0  ISSUED:          0  USEFUL:          0  USELESS:          0
PSCL2 USEFUL LOAD PREFETCHES:          0 PREFETCH ISSUED TO LOWER LEVEL:          0  ACCURACY: -nan
PSCL2 TIMELY PREFETCHES:          0 LATE PREFETCHES: 0 DROPPED PREFETCHES: 0
PSCL2 PREFETCHES SAME FILL-ORIGIN LEVEL: 0 DIFFERENT FILL-ORIGIN LEVEL: 0

LLC TOTAL     ACCESS:    1803461  HIT:       5559  MISS:    1797902  HIT %:   0.308241  MISS %:    99.6918   MPKI: 71.9161
LLC LOAD      ACCESS:      49801  HIT:        534  MISS:      49267  HIT %:    1.07227  MISS %:    98.9277   MPKI: 1.97068
LLC RFO       ACCESS:         19  HIT:          0  MISS:         19  HIT %:          0  MISS %:        100   MPKI: 0.00076
LLC PREFETCH  ACCESS:    1743416  HIT:       1936  MISS:    1741480  HIT %:   0.111046  MISS %:     99.889   MPKI: 69.6592
AGUS PREFETCH L1 MISS: 0
LLC WRITEBACK ACCESS:       2775  HIT:       2765  MISS:         10  HIT %:    99.6396  MISS %:    0.36036   MPKI: 0.0004
LLC LOAD TRANSLATION ACCESS:       7437  HIT:        324  MISS:       7113  HIT %:     4.3566  MISS %:    95.6434   MPKI: 0.28452
LLC TRANSLATION FROM L1D PREFETCHER ACCESS:         13  HIT:          0  MISS:         13  HIT %:          0  MISS %:        100   MPKI: 0.00052
LLC PREFETCH  REQUESTED:          0  ISSUED:          0  USEFUL:         37  USELESS:    1709620
LLC USEFUL LOAD PREFETCHES:         37 PREFETCH ISSUED TO LOWER LEVEL:    1741480  ACCURACY: 0.00212463
LLC TIMELY PREFETCHES:         37 LATE PREFETCHES: 0 DROPPED PREFETCHES: 0
LLC PREFETCHES SAME FILL-ORIGIN LEVEL: 0 DIFFERENT FILL-ORIGIN LEVEL: 0
LLC AVERAGE MISS LATENCY: 77.9277 cycles
LLC RQ	ACCESS:      57269	FORWARD:          0	MERGED:          0	TO_CACHE:      57269
LLC WQ	ACCESS:       2775	FORWARD:          0	MERGED:          0	TO_CACHE:       2775
LLC PQ	ACCESS:    1743416	FORWARD:          0	MERGED:          0	TO_CACHE:    1743416

LLC Dense regions hint to LLC: 0

RAW hits: 3999
Loads Generated: 8976961
Loads sent to L1D: 8972962
Stores Generated: 370377
Stores sent to L1D: 370377
Major fault: 0 Minor fault: 48857
Allocated PAGES: 48857
CPU 0 L1D optimized prefetcher final stats
Degree: 5

DRAM Statistics
 CHANNEL 0
 RQ ROW_BUFFER_HIT:    1672091  ROW_BUFFER_MISS:     125800
 DBUS_CONGESTED:        353
 WQ ROW_BUFFER_HIT:        419  ROW_BUFFER_MISS:       2353  FULL:          0

 AVG_CONGESTED_CYCLE: 4
 All warmup complete: 2
Channel 0 Bank busy for read cycles: 0
Channel 0 Bank busy for write cycles: 0
Channel 0
Rank 0
0banks busy for read cycles: 17498633
0banks busy for write cycles: 1275
1banks busy for read cycles: 14586134
1banks busy for write cycles: 312285
2banks busy for read cycles: 27757121
2banks busy for write cycles: 148397
3banks busy for read cycles: 4964544
3banks busy for write cycles: 56452
4banks busy for read cycles: 915452
4banks busy for write cycles: 30302
5banks busy for read cycles: 694408
5banks busy for write cycles: 15419
6banks busy for read cycles: 1558139
6banks busy for write cycles: 8852
7banks busy for read cycles: 120550
7banks busy for write cycles: 2546
8banks busy for read cycles: 19656
8banks busy for write cycles: 1219

CPU 0 Branch Prediction Accuracy: 99.1323% MPKI: 3.09396 Average ROB Occupancy at Mispredict: 107.854
Branch types
NOT_BRANCH: 16085561 64.3422%
BRANCH_DIRECT_JUMP: 85874 0.343496%
BRANCH_INDIRECT: 0 0%
BRANCH_CONDITIONAL: 8744101 34.9764%
BRANCH_DIRECT_CALL: 42053 0.168212%
BRANCH_INDIRECT_CALL: 0 0%
BRANCH_RETURN: 42053 0.168212%
BRANCH_OTHER: 0 0%

DRAM PAGES: 1048576
Allocated PAGES: 48857
