
*** ChampSim Multicore Out-of-Order Simulator ***

Warmup Instructions: 25000000
Simulation Instructions: 25000000
Number of CPUs: 1
LLC sets: 2048
LLC ways: 16
Off-chip DRAM Size: 4096 MB Channels: 1 Width: 64-bit Data Rate: 6400 MT/s
CPU 0 runs /home/yashas/CS683/pa2-lehra-do-prefetcher-wronganswersonly/traces/trace1.champsimtrace.xz
.xz
CPU 0 Bimodal branch predictor
BTB has LRU replacement policy
ITLB has LRU replacement policy
DTLB has LRU replacement policy
STLB has LRU replacement policy
L1I has LRU replacement policy
CPU 0 L1D Optimized prefetcher
L1D has LRU replacement policy
L2C has LRU replacement policy
LLC has LRU replacement policy
Heartbeat CPU 0 instructions: 10000003 cycles: 2830061 heartbeat IPC: 3.53349 cumulative IPC: 3.53349 (Simulation time: 0 hr 0 min 15 sec) 
Heartbeat CPU 0 instructions: 20000003 cycles: 5650207 heartbeat IPC: 3.54592 cumulative IPC: 3.53969 (Simulation time: 0 hr 0 min 30 sec) 

Warmup complete CPU 0 instructions: 25000004 cycles: 7064357 (Simulation time: 0 hr 0 min 37 sec) 

IP_STRIDE Accuracy is 0 
Switching to CPLX L1D prefetcher
Heartbeat CPU 0 instructions: 30000002 cycles: 23983065 heartbeat IPC: 0.545469 cumulative IPC: 0.295531 (Simulation time: 0 hr 0 min 58 sec) 
CPLX Accuracy is 14.2857 
Switching to NL L1D prefetcher
NL Accuracy is 12.5 
Prefetcher set to CPLX
Heartbeat CPU 0 instructions: 40000001 cycles: 60321687 heartbeat IPC: 0.275189 cumulative IPC: 0.281651 (Simulation time: 0 hr 1 min 41 sec) 
Heartbeat CPU 0 instructions: 50000000 cycles: 95494120 heartbeat IPC: 0.284314 cumulative IPC: 0.28271 (Simulation time: 0 hr 2 min 23 sec) 
Finished CPU 0 instructions: 25000000 cycles: 88429765 cumulative IPC: 0.28271 (Simulation time: 0 hr 2 min 23 sec) 

ChampSim completed all CPUs

Region of Interest Statistics

CPU 0 cumulative IPC: 0.28271 instructions: 25000000 cycles: 88429765
ITLB TOTAL     ACCESS:    4438169  HIT:    4438169  MISS:          0  HIT %:        100  MISS %:          0   MPKI: 0
ITLB LOAD TRANSLATION ACCESS:    4438169  HIT:    4438169  MISS:          0  HIT %:        100  MISS %:          0   MPKI: 0
ITLB PREFETCH  REQUESTED:          0  ISSUED:          0  USEFUL:          0  USELESS:          0
ITLB USEFUL LOAD PREFETCHES:          0 PREFETCH ISSUED TO LOWER LEVEL:          0  ACCURACY: -nan
ITLB TIMELY PREFETCHES:          0 LATE PREFETCHES: 0 DROPPED PREFETCHES: 0
ITLB PREFETCHES SAME FILL-ORIGIN LEVEL: 0 DIFFERENT FILL-ORIGIN LEVEL: 0
ITLB AVERAGE MISS LATENCY: -nan cycles
ITLB RQ	ACCESS:    4791862	FORWARD:          0	MERGED:     353693	TO_CACHE:    4438169

DTLB TOTAL     ACCESS:    3715417  HIT:    3052507  MISS:     662910  HIT %:    82.1579  MISS %:    17.8421   MPKI: 26.5164
DTLB LOAD TRANSLATION ACCESS:    3715417  HIT:    3052507  MISS:     662910  HIT %:    82.1579  MISS %:    17.8421   MPKI: 26.5164
DTLB PREFETCH  REQUESTED:          0  ISSUED:          0  USEFUL:          0  USELESS:          0
DTLB USEFUL LOAD PREFETCHES:          0 PREFETCH ISSUED TO LOWER LEVEL:          0  ACCURACY: -nan
DTLB TIMELY PREFETCHES:          0 LATE PREFETCHES: 0 DROPPED PREFETCHES: 0
DTLB PREFETCHES SAME FILL-ORIGIN LEVEL: 0 DIFFERENT FILL-ORIGIN LEVEL: 0
DTLB AVERAGE MISS LATENCY: 54.2877 cycles
DTLB RQ	ACCESS:    4315244	FORWARD:          0	MERGED:     591311	TO_CACHE:    3723933

STLB TOTAL     ACCESS:     664220  HIT:     102190  MISS:     562030  HIT %:     15.385  MISS %:     84.615   MPKI: 22.4812
STLB LOAD TRANSLATION ACCESS:     662910  HIT:     100886  MISS:     562024  HIT %:    15.2187  MISS %:    84.7813   MPKI: 22.481
STLB TRANSLATION FROM L1D PREFETCHER ACCESS:       1310  HIT:       1304  MISS:          6  HIT %:     99.542  MISS %:   0.458015   MPKI: 0.00024
STLB PREFETCH  REQUESTED:          0  ISSUED:          0  USEFUL:          3  USELESS:          3
STLB USEFUL LOAD PREFETCHES:          3 PREFETCH ISSUED TO LOWER LEVEL:          0  ACCURACY: inf
STLB TIMELY PREFETCHES:          3 LATE PREFETCHES: 0 DROPPED PREFETCHES: 0
STLB PREFETCHES SAME FILL-ORIGIN LEVEL: 0 DIFFERENT FILL-ORIGIN LEVEL: 0
STLB AVERAGE MISS LATENCY: 53.2687 cycles
STLB RQ	ACCESS:     664465	FORWARD:          0	MERGED:        242	TO_CACHE:     664223

STLB Hit, L1D data hit: 0
STLB Hit, L2C data hit: 0
STLB Hit, LLC data hit: 0
STLB Hit, LLC data miss: 0
STLB STLB hints to L2: 0
L1D TOTAL     ACCESS:    4297155  HIT:    3090871  MISS:    1206284  HIT %:    71.9283  MISS %:    28.0717   MPKI: 48.2514
L1D LOAD      ACCESS:    3187039  HIT:    2051432  MISS:    1135607  HIT %:     64.368  MISS %:     35.632   MPKI: 45.4243
L1D RFO       ACCESS:    1108665  HIT:    1039301  MISS:      69364  HIT %:    93.7435  MISS %:    6.25653   MPKI: 2.77456
L1D PREFETCH  ACCESS:       1451  HIT:        138  MISS:       1313  HIT %:    9.51068  MISS %:    90.4893   MPKI: 0.05252
AGUS PREFETCH L1 MISS: 0
L1D PREFETCH  REQUESTED:       3150  ISSUED:       3146  USEFUL:        292  USELESS:       1021
L1D USEFUL LOAD PREFETCHES:        292 PREFETCH ISSUED TO LOWER LEVEL:       1344  ACCURACY: 21.7262
L1D TIMELY PREFETCHES:        292 LATE PREFETCHES: 31 DROPPED PREFETCHES: 0
L1D PREFETCHES SAME FILL-ORIGIN LEVEL: 1344 DIFFERENT FILL-ORIGIN LEVEL: 0
L1D AVERAGE MISS LATENCY: 124.615 cycles
L1D RQ	ACCESS:    6162535	FORWARD:          0	MERGED:    2890436	TO_CACHE:    3206577
L1D WQ	ACCESS:    1108674	FORWARD:      65522	MERGED:          7	TO_CACHE:    1108667
L1D PQ	ACCESS:       1594	FORWARD:          0	MERGED:         42	TO_CACHE:       1552

L1D UNIQUE REGIONS ACCESSED: 0
L1D REGIONS CONFLICTS: 0
L1D Cross Page Prefetch Requests: 0
L1D Same Page Prefetch Requests: 1594
L1D ROI Sum of L1D PQ occupancy: 21056
L1D PREFETCHES PUSHED FROM L2C: 0
L1I TOTAL     ACCESS:    4791860  HIT:    4791860  MISS:          0  HIT %:        100  MISS %:          0   MPKI: 0
L1I LOAD      ACCESS:    4791860  HIT:    4791860  MISS:          0  HIT %:        100  MISS %:          0   MPKI: 0
L1I PREFETCH  REQUESTED:          0  ISSUED:          0  USEFUL:          0  USELESS:          0
L1I USEFUL LOAD PREFETCHES:          0 PREFETCH ISSUED TO LOWER LEVEL:          0  ACCURACY: -nan
L1I TIMELY PREFETCHES:          0 LATE PREFETCHES: 0 DROPPED PREFETCHES: 0
L1I PREFETCHES SAME FILL-ORIGIN LEVEL: 0 DIFFERENT FILL-ORIGIN LEVEL: 0
L1I AVERAGE MISS LATENCY: -nan cycles
L1I RQ	ACCESS:    7099286	FORWARD:          0	MERGED:    2307424	TO_CACHE:    4791862

BTB TOTAL     ACCESS:    3283965  HIT:    3283957  MISS:          8  HIT %:    99.9998  MISS %: 0.000243608   MPKI: 0.00032
BTB BRANCH_DIRECT_JUMP	ACCESS:     568311  HIT:     568309  MISS:          2
BTB BRANCH_INDIRECT	ACCESS:          0  HIT:          0  MISS:          0
BTB BRANCH_CONDITIONAL	ACCESS:    1606986  HIT:    1606982  MISS:          4
BTB BRANCH_DIRECT_CALL	ACCESS:     554334  HIT:     554333  MISS:          1
BTB BRANCH_INDIRECT_CALL	ACCESS:          0  HIT:          0  MISS:          0
BTB BRANCH_RETURN	ACCESS:     554334  HIT:     554333  MISS:          1
BTB BRANCH_OTHER ACCESS:          0  HIT:          0  MISS:          0

L2C TOTAL     ACCESS:    2399508  HIT:    1414800  MISS:     984708  HIT %:    58.9621  MISS %:    41.0379   MPKI: 39.3883
L2C LOAD      ACCESS:    1135576  HIT:     417362  MISS:     718214  HIT %:    36.7533  MISS %:    63.2467   MPKI: 28.7286
L2C DATA LOAD MPKI: 28.7286
L2C INSTRUCTION LOAD MPKI: 0
L2C RFO       ACCESS:      69364  HIT:      42305  MISS:      27059  HIT %:    60.9899  MISS %:    39.0101   MPKI: 1.08236
L2C PREFETCH  ACCESS:       1344  HIT:        270  MISS:       1074  HIT %:    20.0893  MISS %:    79.9107   MPKI: 0.04296
AGUS PREFETCH L1 MISS: 0
L2C DATA PREFETCH MPKI: 0.04296
L2C INSTRUCTION PREFETCH MPKI: 0
L2C WRITEBACK ACCESS:     554350  HIT:     554350  MISS:          0  HIT %:        100  MISS %:          0   MPKI: 0
L2C LOAD TRANSLATION ACCESS:     638862  HIT:     400505  MISS:     238357  HIT %:    62.6904  MISS %:    37.3096   MPKI: 9.53428
L2C TRANSLATION FROM L1D PREFETCHER ACCESS:         12  HIT:          8  MISS:          4  HIT %:    66.6667  MISS %:    33.3333   MPKI: 0.00016
L2C PREFETCH  REQUESTED:          0  ISSUED:          0  USEFUL:          8  USELESS:       1063
L2C USEFUL LOAD PREFETCHES:          8 PREFETCH ISSUED TO LOWER LEVEL:       1074  ACCURACY: 0.744879
L2C TIMELY PREFETCHES:          8 LATE PREFETCHES: 0 DROPPED PREFETCHES: 0
L2C PREFETCHES SAME FILL-ORIGIN LEVEL: 0 DIFFERENT FILL-ORIGIN LEVEL: 0
L2C AVERAGE MISS LATENCY: 142.674 cycles
L2C RQ	ACCESS:    1843815	FORWARD:          0	MERGED:          0	TO_CACHE:    1843815
L2C WQ	ACCESS:     554350	FORWARD:          0	MERGED:          0	TO_CACHE:     554350
L2C PQ	ACCESS:       1344	FORWARD:          0	MERGED:          0	TO_CACHE:       1344

L2C Instructions Evicting Data 0
L2C Translations Evicting Data 142680
L2C Data Evicting Data 603590
L2C Instructions Evicting Instructions 0
L2C Translations Evicting Instructions 0
L2C Data Evicting Instructions 0
L2C Instructions Evicting Translations 0
L2C Translations Evicting Translations 95681
L2C Data Evicting Translations 142757
L2C Dense regions hint from L2: 0
PSCL5 TOTAL     ACCESS:     562031  HIT:     562031  MISS:          0  HIT %:        100  MISS %:          0   MPKI: 0
PSCL5 LOAD TRANSLATION ACCESS:     562025  HIT:     562025  MISS:          0  HIT %:        100  MISS %:          0   MPKI: 0
PSCL5 TRANSLATION FROM L1D PREFETCHER ACCESS:          6  HIT:          6  MISS:          0  HIT %:        100  MISS %:          0   MPKI: 0
PSCL5 PREFETCH  REQUESTED:          0  ISSUED:          0  USEFUL:          0  USELESS:          0
PSCL5 USEFUL LOAD PREFETCHES:          0 PREFETCH ISSUED TO LOWER LEVEL:          0  ACCURACY: -nan
PSCL5 TIMELY PREFETCHES:          0 LATE PREFETCHES: 0 DROPPED PREFETCHES: 0
PSCL5 PREFETCHES SAME FILL-ORIGIN LEVEL: 0 DIFFERENT FILL-ORIGIN LEVEL: 0

PSCL4 TOTAL     ACCESS:     562031  HIT:     562031  MISS:          0  HIT %:        100  MISS %:          0   MPKI: 0
PSCL4 LOAD TRANSLATION ACCESS:     562025  HIT:     562025  MISS:          0  HIT %:        100  MISS %:          0   MPKI: 0
PSCL4 TRANSLATION FROM L1D PREFETCHER ACCESS:          6  HIT:          6  MISS:          0  HIT %:        100  MISS %:          0   MPKI: 0
PSCL4 PREFETCH  REQUESTED:          0  ISSUED:          0  USEFUL:          0  USELESS:          0
PSCL4 USEFUL LOAD PREFETCHES:          0 PREFETCH ISSUED TO LOWER LEVEL:          0  ACCURACY: -nan
PSCL4 TIMELY PREFETCHES:          0 LATE PREFETCHES: 0 DROPPED PREFETCHES: 0
PSCL4 PREFETCHES SAME FILL-ORIGIN LEVEL: 0 DIFFERENT FILL-ORIGIN LEVEL: 0

PSCL3 TOTAL     ACCESS:     562031  HIT:     562031  MISS:          0  HIT %:        100  MISS %:          0   MPKI: 0
PSCL3 LOAD TRANSLATION ACCESS:     562025  HIT:     562025  MISS:          0  HIT %:        100  MISS %:          0   MPKI: 0
PSCL3 TRANSLATION FROM L1D PREFETCHER ACCESS:          6  HIT:          6  MISS:          0  HIT %:        100  MISS %:          0   MPKI: 0
PSCL3 PREFETCH  REQUESTED:          0  ISSUED:          0  USEFUL:          0  USELESS:          0
PSCL3 USEFUL LOAD PREFETCHES:          0 PREFETCH ISSUED TO LOWER LEVEL:          0  ACCURACY: -nan
PSCL3 TIMELY PREFETCHES:          0 LATE PREFETCHES: 0 DROPPED PREFETCHES: 0
PSCL3 PREFETCHES SAME FILL-ORIGIN LEVEL: 0 DIFFERENT FILL-ORIGIN LEVEL: 0

PSCL2 TOTAL     ACCESS:     562031  HIT:     485187  MISS:      76844  HIT %:    86.3274  MISS %:    13.6726   MPKI: 3.07376
PSCL2 LOAD TRANSLATION ACCESS:     562031  HIT:     485187  MISS:      76844  HIT %:    86.3274  MISS %:    13.6726   MPKI: 3.07376
PSCL2 PREFETCH  REQUESTED:          0  ISSUED:          0  USEFUL:          0  USELESS:          0
PSCL2 USEFUL LOAD PREFETCHES:          0 PREFETCH ISSUED TO LOWER LEVEL:          0  ACCURACY: -nan
PSCL2 TIMELY PREFETCHES:          0 LATE PREFETCHES: 0 DROPPED PREFETCHES: 0
PSCL2 PREFETCHES SAME FILL-ORIGIN LEVEL: 0 DIFFERENT FILL-ORIGIN LEVEL: 0

LLC TOTAL     ACCESS:    1539492  HIT:     889059  MISS:     650433  HIT %:    57.7502  MISS %:    42.2498   MPKI: 26.0173
LLC LOAD      ACCESS:     718214  HIT:      76762  MISS:     641452  HIT %:    10.6879  MISS %:    89.3121   MPKI: 25.6581
LLC RFO       ACCESS:      27059  HIT:      27055  MISS:          4  HIT %:    99.9852  MISS %:  0.0147825   MPKI: 0.00016
LLC PREFETCH  ACCESS:       1074  HIT:        495  MISS:        579  HIT %:    46.0894  MISS %:    53.9106   MPKI: 0.02316
AGUS PREFETCH L1 MISS: 0
LLC WRITEBACK ACCESS:     554784  HIT:     554784  MISS:          0  HIT %:        100  MISS %:          0   MPKI: 0
LLC LOAD TRANSLATION ACCESS:     238357  HIT:     229959  MISS:       8398  HIT %:    96.4767  MISS %:    3.52329   MPKI: 0.33592
LLC TRANSLATION FROM L1D PREFETCHER ACCESS:          4  HIT:          4  MISS:          0  HIT %:        100  MISS %:          0   MPKI: 0
LLC PREFETCH  REQUESTED:          0  ISSUED:          0  USEFUL:         18  USELESS:        495
LLC USEFUL LOAD PREFETCHES:         18 PREFETCH ISSUED TO LOWER LEVEL:        579  ACCURACY: 3.10881
LLC TIMELY PREFETCHES:         18 LATE PREFETCHES: 0 DROPPED PREFETCHES: 0
LLC PREFETCHES SAME FILL-ORIGIN LEVEL: 0 DIFFERENT FILL-ORIGIN LEVEL: 0
LLC AVERAGE MISS LATENCY: 170.396 cycles
LLC RQ	ACCESS:     983635	FORWARD:          0	MERGED:          0	TO_CACHE:     983635
LLC WQ	ACCESS:     554784	FORWARD:          0	MERGED:          0	TO_CACHE:     554784
LLC PQ	ACCESS:       1074	FORWARD:          0	MERGED:          0	TO_CACHE:       1074

LLC Dense regions hint to LLC: 0

RAW hits: 488002
Loads Generated: 6650540
Loads sent to L1D: 6162535
Stores Generated: 1108674
Stores sent to L1D: 1108674
Major fault: 0 Minor fault: 23115
Allocated PAGES: 23115
CPU 0 L1D optimized prefetcher final stats
Degree: 5

DRAM Statistics
 CHANNEL 0
 RQ ROW_BUFFER_HIT:        765  ROW_BUFFER_MISS:     649668
 DBUS_CONGESTED:          5
 WQ ROW_BUFFER_HIT:     200608  ROW_BUFFER_MISS:     353879  FULL:          0

 AVG_CONGESTED_CYCLE: 5
 All warmup complete: 2
Channel 0 Bank busy for read cycles: 0
Channel 0 Bank busy for write cycles: 0
Channel 0
Rank 0
0banks busy for read cycles: 2811358
0banks busy for write cycles: 64860
1banks busy for read cycles: 20643176
1banks busy for write cycles: 4947164
2banks busy for read cycles: 14355896
2banks busy for write cycles: 7133648
3banks busy for read cycles: 11273122
3banks busy for write cycles: 10268421
4banks busy for read cycles: 3561529
4banks busy for write cycles: 8197407
5banks busy for read cycles: 13227
5banks busy for write cycles: 2994825
6banks busy for read cycles: 208
6banks busy for write cycles: 1148998
7banks busy for read cycles: 109
7banks busy for write cycles: 559321
8banks busy for read cycles: 0
8banks busy for write cycles: 456497

CPU 0 Branch Prediction Accuracy: 99.9685% MPKI: 0.04912 Average ROB Occupancy at Mispredict: 155.849
Branch types
NOT_BRANCH: 21105652 84.4226%
BRANCH_DIRECT_JUMP: 568311 2.27324%
BRANCH_INDIRECT: 0 0%
BRANCH_CONDITIONAL: 2217337 8.86935%
BRANCH_DIRECT_CALL: 554334 2.21734%
BRANCH_INDIRECT_CALL: 0 0%
BRANCH_RETURN: 554334 2.21734%
BRANCH_OTHER: 0 0%

DRAM PAGES: 1048576
Allocated PAGES: 23115
