
*** ChampSim Multicore Out-of-Order Simulator ***

Warmup Instructions: 25000000
Simulation Instructions: 25000000
Number of CPUs: 1
LLC sets: 2048
LLC ways: 16
Off-chip DRAM Size: 4096 MB Channels: 1 Width: 64-bit Data Rate: 6400 MT/s
CPU 0 runs /home/yashas/CS683/pa2-lehra-do-prefetcher-wronganswersonly/traces/trace1.champsimtrace.xz
.xz
CPU 0 Bimodal branch predictor
BTB has LRU replacement policy
ITLB has LRU replacement policy
DTLB has LRU replacement policy
CPU 0 STLB arbitrary stride prefetcher
STLB has LRU replacement policy
L1I has LRU replacement policy
L1D has LRU replacement policy
L2C has LRU replacement policy
LLC has LRU replacement policy
Heartbeat CPU 0 instructions: 10000003 cycles: 2826663 heartbeat IPC: 3.53774 cumulative IPC: 3.53774 (Simulation time: 0 hr 0 min 15 sec) 
Heartbeat CPU 0 instructions: 20000000 cycles: 5642107 heartbeat IPC: 3.55184 cumulative IPC: 3.54478 (Simulation time: 0 hr 0 min 31 sec) 

Warmup complete CPU 0 instructions: 25000004 cycles: 7054644 (Simulation time: 0 hr 0 min 38 sec) 

Heartbeat CPU 0 instructions: 30000002 cycles: 23905868 heartbeat IPC: 0.547532 cumulative IPC: 0.296714 (Simulation time: 0 hr 0 min 59 sec) 
Heartbeat CPU 0 instructions: 40000001 cycles: 60003070 heartbeat IPC: 0.27703 cumulative IPC: 0.283294 (Simulation time: 0 hr 1 min 42 sec) 
Heartbeat CPU 0 instructions: 50000003 cycles: 94923733 heartbeat IPC: 0.286363 cumulative IPC: 0.284514 (Simulation time: 0 hr 2 min 25 sec) 
Finished CPU 0 instructions: 25000003 cycles: 87869090 cumulative IPC: 0.284514 (Simulation time: 0 hr 2 min 25 sec) 

ChampSim completed all CPUs

Region of Interest Statistics

CPU 0 cumulative IPC: 0.284514 instructions: 25000003 cycles: 87869090
ITLB TOTAL     ACCESS:    4436210  HIT:    4436210  MISS:          0  HIT %:        100  MISS %:          0   MPKI: 0
ITLB LOAD TRANSLATION ACCESS:    4436210  HIT:    4436210  MISS:          0  HIT %:        100  MISS %:          0   MPKI: 0
ITLB PREFETCH  REQUESTED:          0  ISSUED:          0  USEFUL:          0  USELESS:          0
ITLB USEFUL LOAD PREFETCHES:          0 PREFETCH ISSUED TO LOWER LEVEL:          0  ACCURACY: -nan
ITLB TIMELY PREFETCHES:          0 LATE PREFETCHES: 0 DROPPED PREFETCHES: 0
ITLB PREFETCHES SAME FILL-ORIGIN LEVEL: 0 DIFFERENT FILL-ORIGIN LEVEL: 0
ITLB AVERAGE MISS LATENCY: -nan cycles
ITLB RQ	ACCESS:    4790441	FORWARD:          0	MERGED:     354231	TO_CACHE:    4436210

DTLB TOTAL     ACCESS:    3714479  HIT:    3051557  MISS:     662922  HIT %:     82.153  MISS %:     17.847   MPKI: 26.5169
DTLB LOAD TRANSLATION ACCESS:    3714479  HIT:    3051557  MISS:     662922  HIT %:     82.153  MISS %:     17.847   MPKI: 26.5169
DTLB PREFETCH  REQUESTED:          0  ISSUED:          0  USEFUL:          0  USELESS:          0
DTLB USEFUL LOAD PREFETCHES:          0 PREFETCH ISSUED TO LOWER LEVEL:          0  ACCURACY: -nan
DTLB TIMELY PREFETCHES:          0 LATE PREFETCHES: 0 DROPPED PREFETCHES: 0
DTLB PREFETCHES SAME FILL-ORIGIN LEVEL: 0 DIFFERENT FILL-ORIGIN LEVEL: 0
DTLB AVERAGE MISS LATENCY: 52.7158 cycles
DTLB RQ	ACCESS:    4313953	FORWARD:          0	MERGED:     590854	TO_CACHE:    3723099

STLB TOTAL     ACCESS:    1072271  HIT:     368568  MISS:     703703  HIT %:    34.3727  MISS %:    65.6273   MPKI: 28.1481
STLB LOAD TRANSLATION ACCESS:     662922  HIT:     103113  MISS:     559809  HIT %:    15.5543  MISS %:    84.4457   MPKI: 22.3924
STLB PREFETCH TRANSLATION ACCESS:     409349  HIT:     265455  MISS:     143894  HIT %:    64.8481  MISS %:    35.1519   MPKI: 5.75576
STLB PREFETCH  REQUESTED:     433668  ISSUED:     433302  USEFUL:       2896  USELESS:     141330
STLB USEFUL LOAD PREFETCHES:       2896 PREFETCH ISSUED TO LOWER LEVEL:     166535  ACCURACY: 1.73897
STLB TIMELY PREFETCHES:       2896 LATE PREFETCHES: 5 DROPPED PREFETCHES: 22636
STLB PREFETCHES SAME FILL-ORIGIN LEVEL: 166535 DIFFERENT FILL-ORIGIN LEVEL: 0
STLB AVERAGE MISS LATENCY: 75.5627 cycles
STLB RQ	ACCESS:     662925	FORWARD:          0	MERGED:          0	TO_CACHE:     662925
STLB PQ	ACCESS:     433302	FORWARD:          0	MERGED:        717	TO_CACHE:     432585

STLB Hit, L1D data hit: 0
STLB Hit, L2C data hit: 0
STLB Hit, LLC data hit: 0
STLB Hit, LLC data miss: 0
STLB STLB hints to L2: 0
L1D TOTAL     ACCESS:    4295233  HIT:    3089980  MISS:    1205253  HIT %:    71.9398  MISS %:    28.0602   MPKI: 48.2101
L1D LOAD      ACCESS:    3186570  HIT:    2050681  MISS:    1135889  HIT %:    64.3539  MISS %:    35.6461   MPKI: 45.4356
L1D RFO       ACCESS:    1108663  HIT:    1039299  MISS:      69364  HIT %:    93.7435  MISS %:    6.25655   MPKI: 2.77456
L1D PREFETCH  REQUESTED:          0  ISSUED:          0  USEFUL:          0  USELESS:          0
L1D USEFUL LOAD PREFETCHES:          0 PREFETCH ISSUED TO LOWER LEVEL:          0  ACCURACY: -nan
L1D TIMELY PREFETCHES:          0 LATE PREFETCHES: 0 DROPPED PREFETCHES: 0
L1D PREFETCHES SAME FILL-ORIGIN LEVEL: 0 DIFFERENT FILL-ORIGIN LEVEL: 0
L1D AVERAGE MISS LATENCY: 124.758 cycles
L1D RQ	ACCESS:    6163404	FORWARD:          0	MERGED:    2891723	TO_CACHE:    3205288
L1D WQ	ACCESS:    1108674	FORWARD:      66393	MERGED:          9	TO_CACHE:    1108665

L1D UNIQUE REGIONS ACCESSED: 0
L1D REGIONS CONFLICTS: 0
L1D Cross Page Prefetch Requests: 0
L1D Same Page Prefetch Requests: 0
L1D ROI Sum of L1D PQ occupancy: 0
L1D PREFETCHES PUSHED FROM L2C: 0
L1I TOTAL     ACCESS:    4790441  HIT:    4790441  MISS:          0  HIT %:        100  MISS %:          0   MPKI: 0
L1I LOAD      ACCESS:    4790441  HIT:    4790441  MISS:          0  HIT %:        100  MISS %:          0   MPKI: 0
L1I PREFETCH  REQUESTED:          0  ISSUED:          0  USEFUL:          0  USELESS:          0
L1I USEFUL LOAD PREFETCHES:          0 PREFETCH ISSUED TO LOWER LEVEL:          0  ACCURACY: -nan
L1I TIMELY PREFETCHES:          0 LATE PREFETCHES: 0 DROPPED PREFETCHES: 0
L1I PREFETCHES SAME FILL-ORIGIN LEVEL: 0 DIFFERENT FILL-ORIGIN LEVEL: 0
L1I AVERAGE MISS LATENCY: -nan cycles
L1I RQ	ACCESS:    7093492	FORWARD:          0	MERGED:    2303051	TO_CACHE:    4790441

BTB TOTAL     ACCESS:    3283963  HIT:    3283955  MISS:          8  HIT %:    99.9998  MISS %: 0.000243608   MPKI: 0.00032
BTB BRANCH_DIRECT_JUMP	ACCESS:     568310  HIT:     568308  MISS:          2
BTB BRANCH_INDIRECT	ACCESS:          0  HIT:          0  MISS:          0
BTB BRANCH_CONDITIONAL	ACCESS:    1606985  HIT:    1606981  MISS:          4
BTB BRANCH_DIRECT_CALL	ACCESS:     554334  HIT:     554333  MISS:          1
BTB BRANCH_INDIRECT_CALL	ACCESS:          0  HIT:          0  MISS:          0
BTB BRANCH_RETURN	ACCESS:     554334  HIT:     554333  MISS:          1
BTB BRANCH_OTHER ACCESS:          0  HIT:          0  MISS:          0

L2C TOTAL     ACCESS:    2579237  HIT:    1556453  MISS:    1022784  HIT %:    60.3455  MISS %:    39.6545   MPKI: 40.9114
L2C LOAD      ACCESS:    1135888  HIT:     413878  MISS:     722010  HIT %:    36.4365  MISS %:    63.5635   MPKI: 28.8804
L2C DATA LOAD MPKI: 28.8804
L2C INSTRUCTION LOAD MPKI: 0
L2C RFO       ACCESS:      69364  HIT:      40598  MISS:      28766  HIT %:    58.5289  MISS %:    41.4711   MPKI: 1.15064
L2C WRITEBACK ACCESS:     554350  HIT:     554350  MISS:          0  HIT %:        100  MISS %:          0   MPKI: 0
L2C LOAD TRANSLATION ACCESS:     619930  HIT:     406828  MISS:     213102  HIT %:    65.6248  MISS %:    34.3752   MPKI: 8.52408
L2C PREFETCH TRANSLATION ACCESS:     199705  HIT:     140799  MISS:      58906  HIT %:    70.5035  MISS %:    29.4965   MPKI: 2.35624
L2C PREFETCH  REQUESTED:          0  ISSUED:          0  USEFUL:      42421  USELESS:      16532
L2C USEFUL LOAD PREFETCHES:      42421 PREFETCH ISSUED TO LOWER LEVEL:          0  ACCURACY: inf
L2C TIMELY PREFETCHES:      42421 LATE PREFETCHES: 0 DROPPED PREFETCHES: 0
L2C PREFETCHES SAME FILL-ORIGIN LEVEL: 0 DIFFERENT FILL-ORIGIN LEVEL: 0
L2C AVERAGE MISS LATENCY: 139.405 cycles
L2C RQ	ACCESS:    2024888	FORWARD:          0	MERGED:          0	TO_CACHE:    2024888
L2C WQ	ACCESS:     554350	FORWARD:          0	MERGED:          0	TO_CACHE:     554350

L2C Instructions Evicting Data 0
L2C Translations Evicting Data 164364
L2C Data Evicting Data 586193
L2C Instructions Evicting Instructions 0
L2C Translations Evicting Instructions 0
L2C Data Evicting Instructions 0
L2C Instructions Evicting Translations 0
L2C Translations Evicting Translations 107644
L2C Data Evicting Translations 164583
L2C Dense regions hint from L2: 0
PSCL5 TOTAL     ACCESS:     726340  HIT:     726340  MISS:          0  HIT %:        100  MISS %:          0   MPKI: 0
PSCL5 LOAD TRANSLATION ACCESS:     559805  HIT:     559805  MISS:          0  HIT %:        100  MISS %:          0   MPKI: 0
PSCL5 PREFETCH TRANSLATION ACCESS:     166535  HIT:     166535  MISS:          0  HIT %:        100  MISS %:          0   MPKI: 0
PSCL5 PREFETCH  REQUESTED:          0  ISSUED:          0  USEFUL:          0  USELESS:          0
PSCL5 USEFUL LOAD PREFETCHES:          0 PREFETCH ISSUED TO LOWER LEVEL:          0  ACCURACY: -nan
PSCL5 TIMELY PREFETCHES:          0 LATE PREFETCHES: 0 DROPPED PREFETCHES: 0
PSCL5 PREFETCHES SAME FILL-ORIGIN LEVEL: 0 DIFFERENT FILL-ORIGIN LEVEL: 0

PSCL4 TOTAL     ACCESS:     726340  HIT:     726340  MISS:          0  HIT %:        100  MISS %:          0   MPKI: 0
PSCL4 LOAD TRANSLATION ACCESS:     559805  HIT:     559805  MISS:          0  HIT %:        100  MISS %:          0   MPKI: 0
PSCL4 PREFETCH TRANSLATION ACCESS:     166535  HIT:     166535  MISS:          0  HIT %:        100  MISS %:          0   MPKI: 0
PSCL4 PREFETCH  REQUESTED:          0  ISSUED:          0  USEFUL:          0  USELESS:          0
PSCL4 USEFUL LOAD PREFETCHES:          0 PREFETCH ISSUED TO LOWER LEVEL:          0  ACCURACY: -nan
PSCL4 TIMELY PREFETCHES:          0 LATE PREFETCHES: 0 DROPPED PREFETCHES: 0
PSCL4 PREFETCHES SAME FILL-ORIGIN LEVEL: 0 DIFFERENT FILL-ORIGIN LEVEL: 0

PSCL3 TOTAL     ACCESS:     725593  HIT:     725593  MISS:          0  HIT %:        100  MISS %:          0   MPKI: 0
PSCL3 LOAD TRANSLATION ACCESS:     559805  HIT:     559805  MISS:          0  HIT %:        100  MISS %:          0   MPKI: 0
PSCL3 PREFETCH TRANSLATION ACCESS:     165788  HIT:     165788  MISS:          0  HIT %:        100  MISS %:          0   MPKI: 0
PSCL3 PREFETCH  REQUESTED:          0  ISSUED:          0  USEFUL:          0  USELESS:          0
PSCL3 USEFUL LOAD PREFETCHES:          0 PREFETCH ISSUED TO LOWER LEVEL:          0  ACCURACY: -nan
PSCL3 TIMELY PREFETCHES:          0 LATE PREFETCHES: 0 DROPPED PREFETCHES: 0
PSCL3 PREFETCHES SAME FILL-ORIGIN LEVEL: 0 DIFFERENT FILL-ORIGIN LEVEL: 0

PSCL2 TOTAL     ACCESS:     707646  HIT:     630427  MISS:      77219  HIT %:    89.0879  MISS %:    10.9121   MPKI: 3.08876
PSCL2 LOAD TRANSLATION ACCESS:     576898  HIT:     499679  MISS:      77219  HIT %:    86.6148  MISS %:    13.3852   MPKI: 3.08876
PSCL2 PREFETCH TRANSLATION ACCESS:     130748  HIT:     130748  MISS:          0  HIT %:        100  MISS %:          0   MPKI: 0
PSCL2 PREFETCH  REQUESTED:          0  ISSUED:          0  USEFUL:          0  USELESS:          0
PSCL2 USEFUL LOAD PREFETCHES:          0 PREFETCH ISSUED TO LOWER LEVEL:          0  ACCURACY: -nan
PSCL2 TIMELY PREFETCHES:          0 LATE PREFETCHES: 0 DROPPED PREFETCHES: 0
PSCL2 PREFETCHES SAME FILL-ORIGIN LEVEL: 0 DIFFERENT FILL-ORIGIN LEVEL: 0

LLC TOTAL     ACCESS:    1577449  HIT:     922292  MISS:     655157  HIT %:    58.4673  MISS %:    41.5327   MPKI: 26.2063
LLC LOAD      ACCESS:     722010  HIT:      80535  MISS:     641475  HIT %:    11.1543  MISS %:    88.8457   MPKI: 25.659
LLC RFO       ACCESS:      28766  HIT:      28762  MISS:          4  HIT %:    99.9861  MISS %:  0.0139053   MPKI: 0.00016
LLC WRITEBACK ACCESS:     554665  HIT:     554665  MISS:          0  HIT %:        100  MISS %:          0   MPKI: 0
LLC LOAD TRANSLATION ACCESS:     213102  HIT:     206158  MISS:       6944  HIT %:    96.7415  MISS %:    3.25853   MPKI: 0.27776
LLC PREFETCH TRANSLATION ACCESS:      58906  HIT:      52172  MISS:       6734  HIT %:    88.5682  MISS %:    11.4318   MPKI: 0.26936
LLC PREFETCH  REQUESTED:          0  ISSUED:          0  USEFUL:       4755  USELESS:       2040
LLC USEFUL LOAD PREFETCHES:       4755 PREFETCH ISSUED TO LOWER LEVEL:          0  ACCURACY: inf
LLC TIMELY PREFETCHES:       4755 LATE PREFETCHES: 0 DROPPED PREFETCHES: 0
LLC PREFETCHES SAME FILL-ORIGIN LEVEL: 0 DIFFERENT FILL-ORIGIN LEVEL: 0
LLC AVERAGE MISS LATENCY: 170.601 cycles
LLC RQ	ACCESS:    1022785	FORWARD:          0	MERGED:          0	TO_CACHE:    1022785
LLC WQ	ACCESS:     554664	FORWARD:          0	MERGED:          0	TO_CACHE:     554664

LLC Dense regions hint to LLC: 0

RAW hits: 487129
Loads Generated: 6650538
Loads sent to L1D: 6163404
Stores Generated: 1108672
Stores sent to L1D: 1108674
Major fault: 0 Minor fault: 23115
Allocated PAGES: 23115
CPU 0 STLB arbitrary stride prefetcher final stats
Degree: 6

DRAM Statistics
 CHANNEL 0
 RQ ROW_BUFFER_HIT:        872  ROW_BUFFER_MISS:     654285
 DBUS_CONGESTED:          3
 WQ ROW_BUFFER_HIT:     204820  ROW_BUFFER_MISS:     349396  FULL:          0

 AVG_CONGESTED_CYCLE: 3
 All warmup complete: 2
Channel 0 Bank busy for read cycles: 0
Channel 0 Bank busy for write cycles: 0
Channel 0
Rank 0
0banks busy for read cycles: 2639160
0banks busy for write cycles: 60593
1banks busy for read cycles: 20501303
1banks busy for write cycles: 4714561
2banks busy for read cycles: 14169275
2banks busy for write cycles: 6840799
3banks busy for read cycles: 11463888
3banks busy for write cycles: 9765252
4banks busy for read cycles: 3676527
4banks busy for write cycles: 8155725
5banks busy for read cycles: 49557
5banks busy for write cycles: 3325128
6banks busy for read cycles: 219
6banks busy for write cycles: 1340263
7banks busy for read cycles: 0
7banks busy for write cycles: 647971
8banks busy for read cycles: 0
8banks busy for write cycles: 518870

CPU 0 Branch Prediction Accuracy: 99.9685% MPKI: 0.04912 Average ROB Occupancy at Mispredict: 155.894
Branch types
NOT_BRANCH: 21105636 84.4225%
BRANCH_DIRECT_JUMP: 568310 2.27324%
BRANCH_INDIRECT: 0 0%
BRANCH_CONDITIONAL: 2217336 8.86934%
BRANCH_DIRECT_CALL: 554334 2.21734%
BRANCH_INDIRECT_CALL: 0 0%
BRANCH_RETURN: 554334 2.21734%
BRANCH_OTHER: 0 0%

DRAM PAGES: 1048576
Allocated PAGES: 23115
