
*** ChampSim Multicore Out-of-Order Simulator ***

Warmup Instructions: 25000000
Simulation Instructions: 25000000
Number of CPUs: 1
LLC sets: 2048
LLC ways: 16
Off-chip DRAM Size: 4096 MB Channels: 1 Width: 64-bit Data Rate: 6400 MT/s
CPU 0 runs /home/yashas/CS683/pa2-lehra-do-prefetcher-wronganswersonly/traces/trace3.champsimtrace.xz
.xz
CPU 0 Bimodal branch predictor
BTB has LRU replacement policy
ITLB has LRU replacement policy
DTLB has LRU replacement policy
STLB has LRU replacement policy
L1I has LRU replacement policy
CPU 0 L1D Complex-Stride prefetcher
L1D has LRU replacement policy
L2C has LRU replacement policy
LLC has LRU replacement policy
Heartbeat CPU 0 instructions: 10000001 cycles: 3760262 heartbeat IPC: 2.65939 cumulative IPC: 2.65939 (Simulation time: 0 hr 0 min 20 sec) 
Heartbeat CPU 0 instructions: 20000000 cycles: 7491813 heartbeat IPC: 2.67985 cumulative IPC: 2.66958 (Simulation time: 0 hr 0 min 40 sec) 

Warmup complete CPU 0 instructions: 25000004 cycles: 9387945 (Simulation time: 0 hr 0 min 50 sec) 

Heartbeat CPU 0 instructions: 30000001 cycles: 40348276 heartbeat IPC: 0.304354 cumulative IPC: 0.161497 (Simulation time: 0 hr 1 min 12 sec) 
Heartbeat CPU 0 instructions: 40000001 cycles: 102454768 heartbeat IPC: 0.161014 cumulative IPC: 0.161174 (Simulation time: 0 hr 1 min 57 sec) 
Heartbeat CPU 0 instructions: 50000000 cycles: 167854332 heartbeat IPC: 0.152906 cumulative IPC: 0.157762 (Simulation time: 0 hr 2 min 42 sec) 
Finished CPU 0 instructions: 25000000 cycles: 158466389 cumulative IPC: 0.157762 (Simulation time: 0 hr 2 min 42 sec) 

ChampSim completed all CPUs

Region of Interest Statistics

CPU 0 cumulative IPC: 0.157762 instructions: 25000000 cycles: 158466389
ITLB TOTAL     ACCESS:    4052065  HIT:    4052065  MISS:          0  HIT %:        100  MISS %:          0   MPKI: 0
ITLB LOAD TRANSLATION ACCESS:    4052065  HIT:    4052065  MISS:          0  HIT %:        100  MISS %:          0   MPKI: 0
ITLB PREFETCH  REQUESTED:          0  ISSUED:          0  USEFUL:          0  USELESS:          0
ITLB USEFUL LOAD PREFETCHES:          0 PREFETCH ISSUED TO LOWER LEVEL:          0  ACCURACY: -nan
ITLB TIMELY PREFETCHES:          0 LATE PREFETCHES: 0 DROPPED PREFETCHES: 0
ITLB PREFETCHES SAME FILL-ORIGIN LEVEL: 0 DIFFERENT FILL-ORIGIN LEVEL: 0
ITLB AVERAGE MISS LATENCY: -nan cycles
ITLB RQ	ACCESS:    4103213	FORWARD:          0	MERGED:      51149	TO_CACHE:    4052064

DTLB TOTAL     ACCESS:    5231985  HIT:    3027981  MISS:    2204004  HIT %:    57.8744  MISS %:    42.1256   MPKI: 88.1602
DTLB LOAD TRANSLATION ACCESS:    5231985  HIT:    3027981  MISS:    2204004  HIT %:    57.8744  MISS %:    42.1256   MPKI: 88.1602
DTLB PREFETCH  REQUESTED:          0  ISSUED:          0  USEFUL:          0  USELESS:          0
DTLB USEFUL LOAD PREFETCHES:          0 PREFETCH ISSUED TO LOWER LEVEL:          0  ACCURACY: -nan
DTLB TIMELY PREFETCHES:          0 LATE PREFETCHES: 0 DROPPED PREFETCHES: 0
DTLB PREFETCHES SAME FILL-ORIGIN LEVEL: 0 DIFFERENT FILL-ORIGIN LEVEL: 0
DTLB AVERAGE MISS LATENCY: 11.1055 cycles
DTLB RQ	ACCESS:    5761774	FORWARD:          0	MERGED:     495111	TO_CACHE:    5266663

STLB TOTAL     ACCESS:    2738186  HIT:    2709104  MISS:      29082  HIT %:    98.9379  MISS %:    1.06209   MPKI: 1.16328
STLB LOAD TRANSLATION ACCESS:    2204004  HIT:    2174922  MISS:      29082  HIT %:    98.6805  MISS %:    1.31951   MPKI: 1.16328
STLB TRANSLATION FROM L1D PREFETCHER ACCESS:     534182  HIT:     534182  MISS:          0  HIT %:        100  MISS %:          0   MPKI: 0
STLB PREFETCH  REQUESTED:          0  ISSUED:          0  USEFUL:          0  USELESS:          0
STLB USEFUL LOAD PREFETCHES:          0 PREFETCH ISSUED TO LOWER LEVEL:          0  ACCURACY: -nan
STLB TIMELY PREFETCHES:          0 LATE PREFETCHES: 0 DROPPED PREFETCHES: 0
STLB PREFETCHES SAME FILL-ORIGIN LEVEL: 0 DIFFERENT FILL-ORIGIN LEVEL: 0
STLB AVERAGE MISS LATENCY: 135.504 cycles
STLB RQ	ACCESS:    4701768	FORWARD:          0	MERGED:    1963582	TO_CACHE:    2738186

STLB Hit, L1D data hit: 0
STLB Hit, L2C data hit: 0
STLB Hit, LLC data hit: 0
STLB Hit, LLC data miss: 0
STLB STLB hints to L2: 0
L1D TOTAL     ACCESS:    7039217  HIT:    2846246  MISS:    4192971  HIT %:    40.4341  MISS %:    59.5659   MPKI: 167.719
L1D LOAD      ACCESS:    5210178  HIT:    1916632  MISS:    3293546  HIT %:    36.7863  MISS %:    63.2137   MPKI: 131.742
L1D RFO       ACCESS:     423840  HIT:     415973  MISS:       7867  HIT %:    98.1439  MISS %:    1.85612   MPKI: 0.31468
L1D PREFETCH  ACCESS:    1405199  HIT:     513641  MISS:     891558  HIT %:    36.5529  MISS %:    63.4471   MPKI: 35.6623
AGUS PREFETCH L1 MISS: 0
L1D PREFETCH  REQUESTED:    5570413  ISSUED:    5570341  USEFUL:     585664  USELESS:     305868
L1D USEFUL LOAD PREFETCHES:     585664 PREFETCH ISSUED TO LOWER LEVEL:    1140537  ACCURACY: 51.3498
L1D TIMELY PREFETCHES:     585664 LATE PREFETCHES: 248979 DROPPED PREFETCHES: 0
L1D PREFETCHES SAME FILL-ORIGIN LEVEL: 1140537 DIFFERENT FILL-ORIGIN LEVEL: 0
L1D AVERAGE MISS LATENCY: 123.076 cycles
L1D RQ	ACCESS:    8951559	FORWARD:          0	MERGED:    3568091	TO_CACHE:    5318665
L1D WQ	ACCESS:     459661	FORWARD:      64804	MERGED:      16552	TO_CACHE:     443109
L1D PQ	ACCESS:    3072577	FORWARD:          0	MERGED:     574812	TO_CACHE:    2497764

L1D UNIQUE REGIONS ACCESSED: 0
L1D REGIONS CONFLICTS: 0
L1D Cross Page Prefetch Requests: 0
L1D Same Page Prefetch Requests: 6710318
L1D ROI Sum of L1D PQ occupancy: 35609535
L1D PREFETCHES PUSHED FROM L2C: 0
L1I TOTAL     ACCESS:    4103214  HIT:    4103214  MISS:          0  HIT %:        100  MISS %:          0   MPKI: 0
L1I LOAD      ACCESS:    4103214  HIT:    4103214  MISS:          0  HIT %:        100  MISS %:          0   MPKI: 0
L1I PREFETCH  REQUESTED:          0  ISSUED:          0  USEFUL:          0  USELESS:          0
L1I USEFUL LOAD PREFETCHES:          0 PREFETCH ISSUED TO LOWER LEVEL:          0  ACCURACY: -nan
L1I TIMELY PREFETCHES:          0 LATE PREFETCHES: 0 DROPPED PREFETCHES: 0
L1I PREFETCHES SAME FILL-ORIGIN LEVEL: 0 DIFFERENT FILL-ORIGIN LEVEL: 0
L1I AVERAGE MISS LATENCY: -nan cycles
L1I RQ	ACCESS:    5509631	FORWARD:          0	MERGED:    1406418	TO_CACHE:    4103213

BTB TOTAL     ACCESS:    7381233  HIT:    7359090  MISS:      22143  HIT %:       99.7  MISS %:   0.299991   MPKI: 0.88572
BTB BRANCH_DIRECT_JUMP	ACCESS:     954613  HIT:     954578  MISS:         35
BTB BRANCH_INDIRECT	ACCESS:          0  HIT:          0  MISS:          0
BTB BRANCH_CONDITIONAL	ACCESS:    6254608  HIT:    6254529  MISS:         79
BTB BRANCH_DIRECT_CALL	ACCESS:      79755  HIT:      79739  MISS:         16
BTB BRANCH_INDIRECT_CALL	ACCESS:       6250  HIT:       6242  MISS:          8
BTB BRANCH_RETURN	ACCESS:      86007  HIT:      64002  MISS:      22005
BTB BRANCH_OTHER ACCESS:          0  HIT:          0  MISS:          0

L2C TOTAL     ACCESS:    4301996  HIT:     501555  MISS:    3800441  HIT %:    11.6587  MISS %:    88.3413   MPKI: 152.018
L2C LOAD      ACCESS:    3044563  HIT:     379485  MISS:    2665078  HIT %:    12.4644  MISS %:    87.5356   MPKI: 106.603
L2C DATA LOAD MPKI: 106.603
L2C INSTRUCTION LOAD MPKI: 0
L2C RFO       ACCESS:       7867  HIT:        640  MISS:       7227  HIT %:    8.13525  MISS %:    91.8648   MPKI: 0.28908
L2C PREFETCH  ACCESS:    1140537  HIT:      21605  MISS:    1118932  HIT %:    1.89428  MISS %:    98.1057   MPKI: 44.7573
AGUS PREFETCH L1 MISS: 0
L2C DATA PREFETCH MPKI: 44.7573
L2C INSTRUCTION PREFETCH MPKI: 0
L2C WRITEBACK ACCESS:      79773  HIT:      79773  MISS:          0  HIT %:        100  MISS %:          0   MPKI: 0
L2C LOAD TRANSLATION ACCESS:      29256  HIT:      20052  MISS:       9204  HIT %:    68.5398  MISS %:    31.4602   MPKI: 0.36816
L2C PREFETCH  REQUESTED:          0  ISSUED:          0  USEFUL:      13393  USELESS:    1105647
L2C USEFUL LOAD PREFETCHES:      13393 PREFETCH ISSUED TO LOWER LEVEL:    1118932  ACCURACY: 1.19694
L2C TIMELY PREFETCHES:      13393 LATE PREFETCHES: 0 DROPPED PREFETCHES: 0
L2C PREFETCHES SAME FILL-ORIGIN LEVEL: 0 DIFFERENT FILL-ORIGIN LEVEL: 0
L2C AVERAGE MISS LATENCY: 119.1 cycles
L2C RQ	ACCESS:    3081690	FORWARD:          0	MERGED:          0	TO_CACHE:    3081686
L2C WQ	ACCESS:      79773	FORWARD:          4	MERGED:          0	TO_CACHE:      79773
L2C PQ	ACCESS:    1140537	FORWARD:          0	MERGED:          0	TO_CACHE:    1140537

L2C Instructions Evicting Data 0
L2C Translations Evicting Data 9190
L2C Data Evicting Data 3782064
L2C Instructions Evicting Instructions 0
L2C Translations Evicting Instructions 0
L2C Data Evicting Instructions 0
L2C Instructions Evicting Translations 0
L2C Translations Evicting Translations 14
L2C Data Evicting Translations 9173
L2C Dense regions hint from L2: 0
PSCL5 TOTAL     ACCESS:      29082  HIT:      29082  MISS:          0  HIT %:        100  MISS %:          0   MPKI: 0
PSCL5 LOAD TRANSLATION ACCESS:      29082  HIT:      29082  MISS:          0  HIT %:        100  MISS %:          0   MPKI: 0
PSCL5 PREFETCH  REQUESTED:          0  ISSUED:          0  USEFUL:          0  USELESS:          0
PSCL5 USEFUL LOAD PREFETCHES:          0 PREFETCH ISSUED TO LOWER LEVEL:          0  ACCURACY: -nan
PSCL5 TIMELY PREFETCHES:          0 LATE PREFETCHES: 0 DROPPED PREFETCHES: 0
PSCL5 PREFETCHES SAME FILL-ORIGIN LEVEL: 0 DIFFERENT FILL-ORIGIN LEVEL: 0

PSCL4 TOTAL     ACCESS:      29082  HIT:      29082  MISS:          0  HIT %:        100  MISS %:          0   MPKI: 0
PSCL4 LOAD TRANSLATION ACCESS:      29082  HIT:      29082  MISS:          0  HIT %:        100  MISS %:          0   MPKI: 0
PSCL4 PREFETCH  REQUESTED:          0  ISSUED:          0  USEFUL:          0  USELESS:          0
PSCL4 USEFUL LOAD PREFETCHES:          0 PREFETCH ISSUED TO LOWER LEVEL:          0  ACCURACY: -nan
PSCL4 TIMELY PREFETCHES:          0 LATE PREFETCHES: 0 DROPPED PREFETCHES: 0
PSCL4 PREFETCHES SAME FILL-ORIGIN LEVEL: 0 DIFFERENT FILL-ORIGIN LEVEL: 0

PSCL3 TOTAL     ACCESS:      29082  HIT:      29082  MISS:          0  HIT %:        100  MISS %:          0   MPKI: 0
PSCL3 LOAD TRANSLATION ACCESS:      29082  HIT:      29082  MISS:          0  HIT %:        100  MISS %:          0   MPKI: 0
PSCL3 PREFETCH  REQUESTED:          0  ISSUED:          0  USEFUL:          0  USELESS:          0
PSCL3 USEFUL LOAD PREFETCHES:          0 PREFETCH ISSUED TO LOWER LEVEL:          0  ACCURACY: -nan
PSCL3 TIMELY PREFETCHES:          0 LATE PREFETCHES: 0 DROPPED PREFETCHES: 0
PSCL3 PREFETCHES SAME FILL-ORIGIN LEVEL: 0 DIFFERENT FILL-ORIGIN LEVEL: 0

PSCL2 TOTAL     ACCESS:      29082  HIT:      28772  MISS:        310  HIT %:     98.934  MISS %:    1.06595   MPKI: 0.0124
PSCL2 LOAD TRANSLATION ACCESS:      29082  HIT:      28772  MISS:        310  HIT %:     98.934  MISS %:    1.06595   MPKI: 0.0124
PSCL2 PREFETCH  REQUESTED:          0  ISSUED:          0  USEFUL:          0  USELESS:          0
PSCL2 USEFUL LOAD PREFETCHES:          0 PREFETCH ISSUED TO LOWER LEVEL:          0  ACCURACY: -nan
PSCL2 TIMELY PREFETCHES:          0 LATE PREFETCHES: 0 DROPPED PREFETCHES: 0
PSCL2 PREFETCHES SAME FILL-ORIGIN LEVEL: 0 DIFFERENT FILL-ORIGIN LEVEL: 0

LLC TOTAL     ACCESS:    3876883  HIT:    1672542  MISS:    2204341  HIT %:    43.1414  MISS %:    56.8586   MPKI: 88.1736
LLC LOAD      ACCESS:    2665078  HIT:    1501152  MISS:    1163926  HIT %:    56.3268  MISS %:    43.6732   MPKI: 46.557
LLC RFO       ACCESS:       7227  HIT:       6022  MISS:       1205  HIT %:    83.3264  MISS %:    16.6736   MPKI: 0.0482
LLC PREFETCH  ACCESS:    1118932  HIT:      85014  MISS:    1033918  HIT %:    7.59778  MISS %:    92.4022   MPKI: 41.3567
AGUS PREFETCH L1 MISS: 0
LLC WRITEBACK ACCESS:      76442  HIT:      76380  MISS:         62  HIT %:    99.9189  MISS %:  0.0811072   MPKI: 0.00248
LLC LOAD TRANSLATION ACCESS:       9204  HIT:       3974  MISS:       5230  HIT %:    43.1769  MISS %:    56.8231   MPKI: 0.2092
LLC PREFETCH  REQUESTED:          0  ISSUED:          0  USEFUL:      17746  USELESS:    1016443
LLC USEFUL LOAD PREFETCHES:      17746 PREFETCH ISSUED TO LOWER LEVEL:    1033918  ACCURACY: 1.71638
LLC TIMELY PREFETCHES:      17746 LATE PREFETCHES: 0 DROPPED PREFETCHES: 0
LLC PREFETCHES SAME FILL-ORIGIN LEVEL: 0 DIFFERENT FILL-ORIGIN LEVEL: 0
LLC AVERAGE MISS LATENCY: 152.94 cycles
LLC RQ	ACCESS:    2681509	FORWARD:          0	MERGED:          0	TO_CACHE:    2681509
LLC WQ	ACCESS:      76442	FORWARD:          0	MERGED:          0	TO_CACHE:      76442
LLC PQ	ACCESS:    1118932	FORWARD:          0	MERGED:          0	TO_CACHE:    1118932

LLC Dense regions hint to LLC: 0

RAW hits: 62768
Loads Generated: 9014327
Loads sent to L1D: 8951559
Stores Generated: 459660
Stores sent to L1D: 459661
Major fault: 0 Minor fault: 44120
Allocated PAGES: 44120
CPU 0 L1D complex stride prefetcher final stats
Degree: 5

DRAM Statistics
 CHANNEL 0
 RQ ROW_BUFFER_HIT:     832776  ROW_BUFFER_MISS:    1371480
 DBUS_CONGESTED:        238
 WQ ROW_BUFFER_HIT:       9497  ROW_BUFFER_MISS:      30520  FULL:          0

 AVG_CONGESTED_CYCLE: 4
 All warmup complete: 2
Channel 0 Bank busy for read cycles: 0
Channel 0 Bank busy for write cycles: 0
Channel 0
Rank 0
0banks busy for read cycles: 57111264
0banks busy for write cycles: 14982
1banks busy for read cycles: 40419145
1banks busy for write cycles: 2782407
2banks busy for read cycles: 19669510
2banks busy for write cycles: 568523
3banks busy for read cycles: 12148230
3banks busy for write cycles: 241631
4banks busy for read cycles: 8847330
4banks busy for write cycles: 137255
5banks busy for read cycles: 6624453
5banks busy for write cycles: 109742
6banks busy for read cycles: 4615986
6banks busy for write cycles: 107544
7banks busy for read cycles: 2752738
7banks busy for write cycles: 133078
8banks busy for read cycles: 1963731
8banks busy for write cycles: 218841

CPU 0 Branch Prediction Accuracy: 96.3142% MPKI: 11.2642 Average ROB Occupancy at Mispredict: 46.9748
Branch types
NOT_BRANCH: 17359361 69.4374%
BRANCH_DIRECT_JUMP: 954613 3.81845%
BRANCH_INDIRECT: 0 0%
BRANCH_CONDITIONAL: 6513665 26.0547%
BRANCH_DIRECT_CALL: 79755 0.31902%
BRANCH_INDIRECT_CALL: 6250 0.025%
BRANCH_RETURN: 86007 0.344028%
BRANCH_OTHER: 0 0%

DRAM PAGES: 1048576
Allocated PAGES: 44120
