
*** ChampSim Multicore Out-of-Order Simulator ***

Warmup Instructions: 25000000
Simulation Instructions: 25000000
Number of CPUs: 1
LLC sets: 2048
LLC ways: 16
Off-chip DRAM Size: 4096 MB Channels: 1 Width: 64-bit Data Rate: 6400 MT/s
CPU 0 runs /home/yashas/CS683/pa2-lehra-do-prefetcher-wronganswersonly/traces/trace3.champsimtrace.xz
.xz
CPU 0 Bimodal branch predictor
BTB has LRU replacement policy
ITLB has LRU replacement policy
DTLB has LRU replacement policy
STLB has LRU replacement policy
L1I has LRU replacement policy
CPU 0 L1D Optimized prefetcher
L1D has LRU replacement policy
L2C has LRU replacement policy
LLC has LRU replacement policy
Heartbeat CPU 0 instructions: 10000001 cycles: 3773639 heartbeat IPC: 2.64996 cumulative IPC: 2.64996 (Simulation time: 0 hr 0 min 18 sec) 
Heartbeat CPU 0 instructions: 20000000 cycles: 7519176 heartbeat IPC: 2.66984 cumulative IPC: 2.65987 (Simulation time: 0 hr 0 min 37 sec) 

Warmup complete CPU 0 instructions: 25000004 cycles: 9422659 (Simulation time: 0 hr 0 min 46 sec) 

IP_STRIDE Accuracy is 64.2023 
Switching to CPLX L1D prefetcher
CPLX Accuracy is 57.9767 
Switching to NL L1D prefetcher
NL Accuracy is 18.0769 
Prefetcher set to IP_STRIDE
Heartbeat CPU 0 instructions: 30000001 cycles: 37731856 heartbeat IPC: 0.330987 cumulative IPC: 0.176621 (Simulation time: 0 hr 1 min 7 sec) 
Heartbeat CPU 0 instructions: 40000001 cycles: 94816432 heartbeat IPC: 0.175179 cumulative IPC: 0.175657 (Simulation time: 0 hr 1 min 49 sec) 
Heartbeat CPU 0 instructions: 50000000 cycles: 155201361 heartbeat IPC: 0.165604 cumulative IPC: 0.171493 (Simulation time: 0 hr 2 min 32 sec) 
Finished CPU 0 instructions: 25000000 cycles: 145778704 cumulative IPC: 0.171493 (Simulation time: 0 hr 2 min 32 sec) 

ChampSim completed all CPUs

Region of Interest Statistics

CPU 0 cumulative IPC: 0.171493 instructions: 25000000 cycles: 145778704
ITLB TOTAL     ACCESS:    4039079  HIT:    4039079  MISS:          0  HIT %:        100  MISS %:          0   MPKI: 0
ITLB LOAD TRANSLATION ACCESS:    4039079  HIT:    4039079  MISS:          0  HIT %:        100  MISS %:          0   MPKI: 0
ITLB PREFETCH  REQUESTED:          0  ISSUED:          0  USEFUL:          0  USELESS:          0
ITLB USEFUL LOAD PREFETCHES:          0 PREFETCH ISSUED TO LOWER LEVEL:          0  ACCURACY: -nan
ITLB TIMELY PREFETCHES:          0 LATE PREFETCHES: 0 DROPPED PREFETCHES: 0
ITLB PREFETCHES SAME FILL-ORIGIN LEVEL: 0 DIFFERENT FILL-ORIGIN LEVEL: 0
ITLB AVERAGE MISS LATENCY: -nan cycles
ITLB RQ	ACCESS:    4090285	FORWARD:          0	MERGED:      51207	TO_CACHE:    4039078

DTLB TOTAL     ACCESS:    5222778  HIT:    3018921  MISS:    2203857  HIT %:     57.803  MISS %:     42.197   MPKI: 88.1543
DTLB LOAD TRANSLATION ACCESS:    5222778  HIT:    3018921  MISS:    2203857  HIT %:     57.803  MISS %:     42.197   MPKI: 88.1543
DTLB PREFETCH  REQUESTED:          0  ISSUED:          0  USEFUL:          0  USELESS:          0
DTLB USEFUL LOAD PREFETCHES:          0 PREFETCH ISSUED TO LOWER LEVEL:          0  ACCURACY: -nan
DTLB TIMELY PREFETCHES:          0 LATE PREFETCHES: 0 DROPPED PREFETCHES: 0
DTLB PREFETCHES SAME FILL-ORIGIN LEVEL: 0 DIFFERENT FILL-ORIGIN LEVEL: 0
DTLB AVERAGE MISS LATENCY: 11.1721 cycles
DTLB RQ	ACCESS:    5752396	FORWARD:          0	MERGED:     495030	TO_CACHE:    5257366

STLB TOTAL     ACCESS:    2813581  HIT:    2784496  MISS:      29085  HIT %:    98.9663  MISS %:    1.03374   MPKI: 1.1634
STLB LOAD TRANSLATION ACCESS:    2203857  HIT:    2174772  MISS:      29085  HIT %:    98.6803  MISS %:    1.31973   MPKI: 1.1634
STLB TRANSLATION FROM L1D PREFETCHER ACCESS:     609724  HIT:     609724  MISS:          0  HIT %:        100  MISS %:          0   MPKI: 0
STLB PREFETCH  REQUESTED:          0  ISSUED:          0  USEFUL:          0  USELESS:          0
STLB USEFUL LOAD PREFETCHES:          0 PREFETCH ISSUED TO LOWER LEVEL:          0  ACCURACY: -nan
STLB TIMELY PREFETCHES:          0 LATE PREFETCHES: 0 DROPPED PREFETCHES: 0
STLB PREFETCHES SAME FILL-ORIGIN LEVEL: 0 DIFFERENT FILL-ORIGIN LEVEL: 0
STLB AVERAGE MISS LATENCY: 133.656 cycles
STLB RQ	ACCESS:    5199552	FORWARD:          0	MERGED:    2385971	TO_CACHE:    2813581

STLB Hit, L1D data hit: 0
STLB Hit, L2C data hit: 0
STLB Hit, LLC data hit: 0
STLB Hit, LLC data miss: 0
STLB STLB hints to L2: 0
L1D TOTAL     ACCESS:    7195384  HIT:    3311447  MISS:    3883937  HIT %:    46.0218  MISS %:    53.9782   MPKI: 155.357
L1D LOAD      ACCESS:    5250040  HIT:    2129680  MISS:    3120360  HIT %:     40.565  MISS %:     59.435   MPKI: 124.814
L1D RFO       ACCESS:     424084  HIT:     416257  MISS:       7827  HIT %:    98.1544  MISS %:    1.84562   MPKI: 0.31308
L1D PREFETCH  ACCESS:    1521260  HIT:     765510  MISS:     755750  HIT %:    50.3208  MISS %:    49.6792   MPKI: 30.23
AGUS PREFETCH L1 MISS: 0
L1D PREFETCH  REQUESTED:    6585814  ISSUED:    6585580  USEFUL:     753979  USELESS:       1769
L1D USEFUL LOAD PREFETCHES:     753979 PREFETCH ISSUED TO LOWER LEVEL:    1162656  ACCURACY: 64.8497
L1D TIMELY PREFETCHES:     753979 LATE PREFETCHES: 406906 DROPPED PREFETCHES: 0
L1D PREFETCHES SAME FILL-ORIGIN LEVEL: 1162656 DIFFERENT FILL-ORIGIN LEVEL: 0
L1D AVERAGE MISS LATENCY: 113.918 cycles
L1D RQ	ACCESS:    8951602	FORWARD:          0	MERGED:    3577485	TO_CACHE:    5309270
L1D WQ	ACCESS:     459661	FORWARD:      64847	MERGED:      16535	TO_CACHE:     443126
L1D PQ	ACCESS:    3589885	FORWARD:          0	MERGED:     594190	TO_CACHE:    2995695

L1D UNIQUE REGIONS ACCESSED: 0
L1D REGIONS CONFLICTS: 0
L1D Cross Page Prefetch Requests: 0
L1D Same Page Prefetch Requests: 3589885
L1D ROI Sum of L1D PQ occupancy: 41203778
L1D PREFETCHES PUSHED FROM L2C: 0
L1I TOTAL     ACCESS:    4090286  HIT:    4090286  MISS:          0  HIT %:        100  MISS %:          0   MPKI: 0
L1I LOAD      ACCESS:    4090286  HIT:    4090286  MISS:          0  HIT %:        100  MISS %:          0   MPKI: 0
L1I PREFETCH  REQUESTED:          0  ISSUED:          0  USEFUL:          0  USELESS:          0
L1I USEFUL LOAD PREFETCHES:          0 PREFETCH ISSUED TO LOWER LEVEL:          0  ACCURACY: -nan
L1I TIMELY PREFETCHES:          0 LATE PREFETCHES: 0 DROPPED PREFETCHES: 0
L1I PREFETCHES SAME FILL-ORIGIN LEVEL: 0 DIFFERENT FILL-ORIGIN LEVEL: 0
L1I AVERAGE MISS LATENCY: -nan cycles
L1I RQ	ACCESS:    5490025	FORWARD:          0	MERGED:    1399740	TO_CACHE:    4090285

BTB TOTAL     ACCESS:    7381233  HIT:    7359090  MISS:      22143  HIT %:       99.7  MISS %:   0.299991   MPKI: 0.88572
BTB BRANCH_DIRECT_JUMP	ACCESS:     954613  HIT:     954578  MISS:         35
BTB BRANCH_INDIRECT	ACCESS:          0  HIT:          0  MISS:          0
BTB BRANCH_CONDITIONAL	ACCESS:    6254608  HIT:    6254529  MISS:         79
BTB BRANCH_DIRECT_CALL	ACCESS:      79755  HIT:      79739  MISS:         16
BTB BRANCH_INDIRECT_CALL	ACCESS:       6250  HIT:       6242  MISS:          8
BTB BRANCH_RETURN	ACCESS:      86007  HIT:      64002  MISS:      22005
BTB BRANCH_OTHER ACCESS:          0  HIT:          0  MISS:          0

L2C TOTAL     ACCESS:    3992940  HIT:     512278  MISS:    3480662  HIT %:    12.8296  MISS %:    87.1704   MPKI: 139.226
L2C LOAD      ACCESS:    2713449  HIT:     411431  MISS:    2302018  HIT %:    15.1627  MISS %:    84.8373   MPKI: 92.0807
L2C DATA LOAD MPKI: 92.0807
L2C INSTRUCTION LOAD MPKI: 0
L2C RFO       ACCESS:       7827  HIT:        769  MISS:       7058  HIT %:    9.82496  MISS %:     90.175   MPKI: 0.28232
L2C PREFETCH  ACCESS:    1162656  HIT:        183  MISS:    1162473  HIT %:  0.0157398  MISS %:    99.9843   MPKI: 46.4989
AGUS PREFETCH L1 MISS: 0
L2C DATA PREFETCH MPKI: 46.4989
L2C INSTRUCTION PREFETCH MPKI: 0
L2C WRITEBACK ACCESS:      79749  HIT:      79749  MISS:          0  HIT %:        100  MISS %:          0   MPKI: 0
L2C LOAD TRANSLATION ACCESS:      29259  HIT:      20146  MISS:       9113  HIT %:     68.854  MISS %:     31.146   MPKI: 0.36452
L2C PREFETCH  REQUESTED:          0  ISSUED:          0  USEFUL:        912  USELESS:    1158961
L2C USEFUL LOAD PREFETCHES:        912 PREFETCH ISSUED TO LOWER LEVEL:    1162473  ACCURACY: 0.0784534
L2C TIMELY PREFETCHES:        912 LATE PREFETCHES: 0 DROPPED PREFETCHES: 0
L2C PREFETCHES SAME FILL-ORIGIN LEVEL: 0 DIFFERENT FILL-ORIGIN LEVEL: 0
L2C AVERAGE MISS LATENCY: 110.202 cycles
L2C RQ	ACCESS:    2750540	FORWARD:          0	MERGED:          0	TO_CACHE:    2750535
L2C WQ	ACCESS:      79749	FORWARD:          5	MERGED:          0	TO_CACHE:      79749
L2C PQ	ACCESS:    1162656	FORWARD:          0	MERGED:          0	TO_CACHE:    1162656

L2C Instructions Evicting Data 0
L2C Translations Evicting Data 9094
L2C Data Evicting Data 3462474
L2C Instructions Evicting Instructions 0
L2C Translations Evicting Instructions 0
L2C Data Evicting Instructions 0
L2C Instructions Evicting Translations 0
L2C Translations Evicting Translations 19
L2C Data Evicting Translations 9075
L2C Dense regions hint from L2: 0
PSCL5 TOTAL     ACCESS:      29085  HIT:      29085  MISS:          0  HIT %:        100  MISS %:          0   MPKI: 0
PSCL5 LOAD TRANSLATION ACCESS:      29085  HIT:      29085  MISS:          0  HIT %:        100  MISS %:          0   MPKI: 0
PSCL5 PREFETCH  REQUESTED:          0  ISSUED:          0  USEFUL:          0  USELESS:          0
PSCL5 USEFUL LOAD PREFETCHES:          0 PREFETCH ISSUED TO LOWER LEVEL:          0  ACCURACY: -nan
PSCL5 TIMELY PREFETCHES:          0 LATE PREFETCHES: 0 DROPPED PREFETCHES: 0
PSCL5 PREFETCHES SAME FILL-ORIGIN LEVEL: 0 DIFFERENT FILL-ORIGIN LEVEL: 0

PSCL4 TOTAL     ACCESS:      29085  HIT:      29085  MISS:          0  HIT %:        100  MISS %:          0   MPKI: 0
PSCL4 LOAD TRANSLATION ACCESS:      29085  HIT:      29085  MISS:          0  HIT %:        100  MISS %:          0   MPKI: 0
PSCL4 PREFETCH  REQUESTED:          0  ISSUED:          0  USEFUL:          0  USELESS:          0
PSCL4 USEFUL LOAD PREFETCHES:          0 PREFETCH ISSUED TO LOWER LEVEL:          0  ACCURACY: -nan
PSCL4 TIMELY PREFETCHES:          0 LATE PREFETCHES: 0 DROPPED PREFETCHES: 0
PSCL4 PREFETCHES SAME FILL-ORIGIN LEVEL: 0 DIFFERENT FILL-ORIGIN LEVEL: 0

PSCL3 TOTAL     ACCESS:      29085  HIT:      29085  MISS:          0  HIT %:        100  MISS %:          0   MPKI: 0
PSCL3 LOAD TRANSLATION ACCESS:      29085  HIT:      29085  MISS:          0  HIT %:        100  MISS %:          0   MPKI: 0
PSCL3 PREFETCH  REQUESTED:          0  ISSUED:          0  USEFUL:          0  USELESS:          0
PSCL3 USEFUL LOAD PREFETCHES:          0 PREFETCH ISSUED TO LOWER LEVEL:          0  ACCURACY: -nan
PSCL3 TIMELY PREFETCHES:          0 LATE PREFETCHES: 0 DROPPED PREFETCHES: 0
PSCL3 PREFETCHES SAME FILL-ORIGIN LEVEL: 0 DIFFERENT FILL-ORIGIN LEVEL: 0

PSCL2 TOTAL     ACCESS:      29085  HIT:      28775  MISS:        310  HIT %:    98.9342  MISS %:    1.06584   MPKI: 0.0124
PSCL2 LOAD TRANSLATION ACCESS:      29085  HIT:      28775  MISS:        310  HIT %:    98.9342  MISS %:    1.06584   MPKI: 0.0124
PSCL2 PREFETCH  REQUESTED:          0  ISSUED:          0  USEFUL:          0  USELESS:          0
PSCL2 USEFUL LOAD PREFETCHES:          0 PREFETCH ISSUED TO LOWER LEVEL:          0  ACCURACY: -nan
PSCL2 TIMELY PREFETCHES:          0 LATE PREFETCHES: 0 DROPPED PREFETCHES: 0
PSCL2 PREFETCHES SAME FILL-ORIGIN LEVEL: 0 DIFFERENT FILL-ORIGIN LEVEL: 0

LLC TOTAL     ACCESS:    3556196  HIT:    1560327  MISS:    1995869  HIT %:    43.8763  MISS %:    56.1237   MPKI: 79.8348
LLC LOAD      ACCESS:    2302018  HIT:    1473889  MISS:     828129  HIT %:     64.026  MISS %:     35.974   MPKI: 33.1252
LLC RFO       ACCESS:       7058  HIT:       5925  MISS:       1133  HIT %:    83.9473  MISS %:    16.0527   MPKI: 0.04532
LLC PREFETCH  ACCESS:    1162473  HIT:       1079  MISS:    1161394  HIT %:  0.0928194  MISS %:    99.9072   MPKI: 46.4558
AGUS PREFETCH L1 MISS: 0
LLC WRITEBACK ACCESS:      75534  HIT:      75418  MISS:        116  HIT %:    99.8464  MISS %:   0.153573   MPKI: 0.00464
LLC LOAD TRANSLATION ACCESS:       9113  HIT:       4016  MISS:       5097  HIT %:    44.0689  MISS %:    55.9311   MPKI: 0.20388
LLC PREFETCH  REQUESTED:          0  ISSUED:          0  USEFUL:        623  USELESS:    1145183
LLC USEFUL LOAD PREFETCHES:        623 PREFETCH ISSUED TO LOWER LEVEL:    1161394  ACCURACY: 0.0536424
LLC TIMELY PREFETCHES:        623 LATE PREFETCHES: 0 DROPPED PREFETCHES: 0
LLC PREFETCHES SAME FILL-ORIGIN LEVEL: 0 DIFFERENT FILL-ORIGIN LEVEL: 0
LLC AVERAGE MISS LATENCY: 139.214 cycles
LLC RQ	ACCESS:    2318189	FORWARD:          0	MERGED:          0	TO_CACHE:    2318189
LLC WQ	ACCESS:      75534	FORWARD:          0	MERGED:          0	TO_CACHE:      75534
LLC PQ	ACCESS:    1162473	FORWARD:          0	MERGED:          0	TO_CACHE:    1162473

LLC Dense regions hint to LLC: 0

RAW hits: 62725
Loads Generated: 9014327
Loads sent to L1D: 8951602
Stores Generated: 459660
Stores sent to L1D: 459661
Major fault: 0 Minor fault: 44120
Allocated PAGES: 44120
CPU 0 L1D optimized prefetcher final stats
Degree: 5

DRAM Statistics
 CHANNEL 0
 RQ ROW_BUFFER_HIT:     924415  ROW_BUFFER_MISS:    1071323
 DBUS_CONGESTED:        248
 WQ ROW_BUFFER_HIT:       9639  ROW_BUFFER_MISS:      30123  FULL:          0

 AVG_CONGESTED_CYCLE: 4
 All warmup complete: 2
Channel 0 Bank busy for read cycles: 0
Channel 0 Bank busy for write cycles: 0
Channel 0
Rank 0
0banks busy for read cycles: 55016604
0banks busy for write cycles: 15242
1banks busy for read cycles: 37135942
1banks busy for write cycles: 2785805
2banks busy for read cycles: 19365540
2banks busy for write cycles: 572781
3banks busy for read cycles: 11482845
3banks busy for write cycles: 234501
4banks busy for read cycles: 6794754
4banks busy for write cycles: 143143
5banks busy for read cycles: 5060793
5banks busy for write cycles: 122559
6banks busy for read cycles: 3548211
6banks busy for write cycles: 107590
7banks busy for read cycles: 1706534
7banks busy for write cycles: 131411
8banks busy for read cycles: 1363509
8banks busy for write cycles: 190941

CPU 0 Branch Prediction Accuracy: 96.3142% MPKI: 11.2642 Average ROB Occupancy at Mispredict: 45.6444
Branch types
NOT_BRANCH: 17359361 69.4374%
BRANCH_DIRECT_JUMP: 954613 3.81845%
BRANCH_INDIRECT: 0 0%
BRANCH_CONDITIONAL: 6513665 26.0547%
BRANCH_DIRECT_CALL: 79755 0.31902%
BRANCH_INDIRECT_CALL: 6250 0.025%
BRANCH_RETURN: 86007 0.344028%
BRANCH_OTHER: 0 0%

DRAM PAGES: 1048576
Allocated PAGES: 44120
