
*** ChampSim Multicore Out-of-Order Simulator ***

Warmup Instructions: 25000000
Simulation Instructions: 25000000
Number of CPUs: 1
LLC sets: 2048
LLC ways: 16
Off-chip DRAM Size: 4096 MB Channels: 1 Width: 64-bit Data Rate: 6400 MT/s
CPU 0 runs /home/yashas/CS683/pa2-lehra-do-prefetcher-wronganswersonly/traces/trace1.champsimtrace.xz
.xz
CPU 0 Bimodal branch predictor
BTB has LRU replacement policy
ITLB has LRU replacement policy
DTLB has LRU replacement policy
CPU 0 STLB arbitrary stride prefetcher
STLB has LRU replacement policy
L1I has LRU replacement policy
CPU 0 L1D Optimized prefetcher
L1D has LRU replacement policy
L2C has LRU replacement policy
LLC has LRU replacement policy
Heartbeat CPU 0 instructions: 10000003 cycles: 2830084 heartbeat IPC: 3.53347 cumulative IPC: 3.53347 (Simulation time: 0 hr 0 min 16 sec) 
Heartbeat CPU 0 instructions: 20000003 cycles: 5650222 heartbeat IPC: 3.54593 cumulative IPC: 3.53968 (Simulation time: 0 hr 0 min 32 sec) 

Warmup complete CPU 0 instructions: 25000004 cycles: 7064385 (Simulation time: 0 hr 0 min 40 sec) 

IP_STRIDE Accuracy is 21.2121 
Switching to CPLX L1D prefetcher
Heartbeat CPU 0 instructions: 30000002 cycles: 23911782 heartbeat IPC: 0.547598 cumulative IPC: 0.296782 (Simulation time: 0 hr 1 min 1 sec) 
CPLX Accuracy is 6.06061 
Switching to NL L1D prefetcher
NL Accuracy is 97.1429 
Prefetcher set to NL
Heartbeat CPU 0 instructions: 40000002 cycles: 56792753 heartbeat IPC: 0.304127 cumulative IPC: 0.301639 (Simulation time: 0 hr 1 min 48 sec) 
Heartbeat CPU 0 instructions: 50000000 cycles: 81365778 heartbeat IPC: 0.40695 cumulative IPC: 0.336467 (Simulation time: 0 hr 2 min 34 sec) 
Finished CPU 0 instructions: 25000000 cycles: 74301394 cumulative IPC: 0.336467 (Simulation time: 0 hr 2 min 34 sec) 

ChampSim completed all CPUs

Region of Interest Statistics

CPU 0 cumulative IPC: 0.336467 instructions: 25000000 cycles: 74301394
ITLB TOTAL     ACCESS:    4468765  HIT:    4468765  MISS:          0  HIT %:        100  MISS %:          0   MPKI: 0
ITLB LOAD TRANSLATION ACCESS:    4468765  HIT:    4468765  MISS:          0  HIT %:        100  MISS %:          0   MPKI: 0
ITLB PREFETCH  REQUESTED:          0  ISSUED:          0  USEFUL:          0  USELESS:          0
ITLB USEFUL LOAD PREFETCHES:          0 PREFETCH ISSUED TO LOWER LEVEL:          0  ACCURACY: -nan
ITLB TIMELY PREFETCHES:          0 LATE PREFETCHES: 0 DROPPED PREFETCHES: 0
ITLB PREFETCHES SAME FILL-ORIGIN LEVEL: 0 DIFFERENT FILL-ORIGIN LEVEL: 0
ITLB AVERAGE MISS LATENCY: -nan cycles
ITLB RQ	ACCESS:    4813187	FORWARD:          0	MERGED:     344423	TO_CACHE:    4468764

DTLB TOTAL     ACCESS:    3753103  HIT:    3090395  MISS:     662708  HIT %:    82.3424  MISS %:    17.6576   MPKI: 26.5083
DTLB LOAD TRANSLATION ACCESS:    3753103  HIT:    3090395  MISS:     662708  HIT %:    82.3424  MISS %:    17.6576   MPKI: 26.5083
DTLB PREFETCH  REQUESTED:          0  ISSUED:          0  USEFUL:          0  USELESS:          0
DTLB USEFUL LOAD PREFETCHES:          0 PREFETCH ISSUED TO LOWER LEVEL:          0  ACCURACY: -nan
DTLB TIMELY PREFETCHES:          0 LATE PREFETCHES: 0 DROPPED PREFETCHES: 0
DTLB PREFETCHES SAME FILL-ORIGIN LEVEL: 0 DIFFERENT FILL-ORIGIN LEVEL: 0
DTLB AVERAGE MISS LATENCY: 72.2851 cycles
DTLB RQ	ACCESS:    4349466	FORWARD:          0	MERGED:     590282	TO_CACHE:    3759184

STLB TOTAL     ACCESS:    2698466  HIT:    2012946  MISS:     685520  HIT %:    74.5959  MISS %:    25.4041   MPKI: 27.4208
STLB LOAD TRANSLATION ACCESS:     662708  HIT:     102834  MISS:     559874  HIT %:    15.5172  MISS %:    84.4828   MPKI: 22.395
STLB PREFETCH TRANSLATION ACCESS:     456405  HIT:     330886  MISS:     125519  HIT %:    72.4983  MISS %:    27.5017   MPKI: 5.02076
STLB TRANSLATION FROM L1D PREFETCHER ACCESS:    1579353  HIT:    1579226  MISS:        127  HIT %:     99.992  MISS %: 0.00804127   MPKI: 0.00508
STLB PREFETCH  REQUESTED:     479664  ISSUED:     478748  USEFUL:       2751  USELESS:     122712
STLB USEFUL LOAD PREFETCHES:       2751 PREFETCH ISSUED TO LOWER LEVEL:     146610  ACCURACY: 1.87641
STLB TIMELY PREFETCHES:       2751 LATE PREFETCHES: 5 DROPPED PREFETCHES: 21085
STLB PREFETCHES SAME FILL-ORIGIN LEVEL: 146610 DIFFERENT FILL-ORIGIN LEVEL: 0
STLB AVERAGE MISS LATENCY: 118.449 cycles
STLB RQ	ACCESS:    8105181	FORWARD:          0	MERGED:    5863116	TO_CACHE:    2242065
STLB PQ	ACCESS:     478748	FORWARD:          0	MERGED:        964	TO_CACHE:     477784

STLB Hit, L1D data hit: 0
STLB Hit, L2C data hit: 0
STLB Hit, LLC data hit: 0
STLB Hit, LLC data miss: 0
STLB STLB hints to L2: 0
L1D TOTAL     ACCESS:   11453459  HIT:    7886834  MISS:    3566625  HIT %:    68.8598  MISS %:    31.1402   MPKI: 142.665
L1D LOAD      ACCESS:    3220254  HIT:    2071660  MISS:    1148594  HIT %:    64.3322  MISS %:    35.6678   MPKI: 45.9438
L1D RFO       ACCESS:    1108662  HIT:    1039303  MISS:      69359  HIT %:    93.7439  MISS %:     6.2561   MPKI: 2.77436
L1D PREFETCH  ACCESS:    7124543  HIT:    4775871  MISS:    2348672  HIT %:    67.0341  MISS %:    32.9659   MPKI: 93.9469
AGUS PREFETCH L1 MISS: 0
L1D PREFETCH  REQUESTED:   17332348  ISSUED:   17281640  USEFUL:      12300  USELESS:    2335793
L1D USEFUL LOAD PREFETCHES:      12300 PREFETCH ISSUED TO LOWER LEVEL:    2351971  ACCURACY: 0.522966
L1D TIMELY PREFETCHES:      12300 LATE PREFETCHES: 3296 DROPPED PREFETCHES: 0
L1D PREFETCHES SAME FILL-ORIGIN LEVEL: 2351971 DIFFERENT FILL-ORIGIN LEVEL: 0
L1D AVERAGE MISS LATENCY: 81.9537 cycles
L1D RQ	ACCESS:    6156950	FORWARD:          0	MERGED:    2856199	TO_CACHE:    3240801
L1D WQ	ACCESS:    1108674	FORWARD:      59950	MERGED:          9	TO_CACHE:    1108665
L1D PQ	ACCESS:    9839169	FORWARD:          0	MERGED:    2396698	TO_CACHE:    7442471

L1D UNIQUE REGIONS ACCESSED: 0
L1D REGIONS CONFLICTS: 0
L1D Cross Page Prefetch Requests: 0
L1D Same Page Prefetch Requests: 9839169
L1D ROI Sum of L1D PQ occupancy: 104156413
L1D PREFETCHES PUSHED FROM L2C: 0
L1I TOTAL     ACCESS:    4813188  HIT:    4813188  MISS:          0  HIT %:        100  MISS %:          0   MPKI: 0
L1I LOAD      ACCESS:    4813188  HIT:    4813188  MISS:          0  HIT %:        100  MISS %:          0   MPKI: 0
L1I PREFETCH  REQUESTED:          0  ISSUED:          0  USEFUL:          0  USELESS:          0
L1I USEFUL LOAD PREFETCHES:          0 PREFETCH ISSUED TO LOWER LEVEL:          0  ACCURACY: -nan
L1I TIMELY PREFETCHES:          0 LATE PREFETCHES: 0 DROPPED PREFETCHES: 0
L1I PREFETCHES SAME FILL-ORIGIN LEVEL: 0 DIFFERENT FILL-ORIGIN LEVEL: 0
L1I AVERAGE MISS LATENCY: -nan cycles
L1I RQ	ACCESS:    7229114	FORWARD:          0	MERGED:    2415927	TO_CACHE:    4813187

BTB TOTAL     ACCESS:    3283960  HIT:    3283952  MISS:          8  HIT %:    99.9998  MISS %: 0.000243608   MPKI: 0.00032
BTB BRANCH_DIRECT_JUMP	ACCESS:     568310  HIT:     568308  MISS:          2
BTB BRANCH_INDIRECT	ACCESS:          0  HIT:          0  MISS:          0
BTB BRANCH_CONDITIONAL	ACCESS:    1606983  HIT:    1606979  MISS:          4
BTB BRANCH_DIRECT_CALL	ACCESS:     554334  HIT:     554333  MISS:          1
BTB BRANCH_INDIRECT_CALL	ACCESS:          0  HIT:          0  MISS:          0
BTB BRANCH_RETURN	ACCESS:     554333  HIT:     554332  MISS:          1
BTB BRANCH_OTHER ACCESS:          0  HIT:          0  MISS:          0

L2C TOTAL     ACCESS:    4921184  HIT:    1503737  MISS:    3417447  HIT %:    30.5564  MISS %:    69.4436   MPKI: 136.698
L2C LOAD      ACCESS:    1145298  HIT:     264475  MISS:     880823  HIT %:    23.0922  MISS %:    76.9078   MPKI: 35.2329
L2C DATA LOAD MPKI: 35.2329
L2C INSTRUCTION LOAD MPKI: 0
L2C RFO       ACCESS:      69359  HIT:      16678  MISS:      52681  HIT %:    24.0459  MISS %:    75.9541   MPKI: 2.10724
L2C PREFETCH  ACCESS:    2351968  HIT:     329300  MISS:    2022668  HIT %:     14.001  MISS %:     85.999   MPKI: 80.9067
AGUS PREFETCH L1 MISS: 0
L2C DATA PREFETCH MPKI: 80.9067
L2C INSTRUCTION PREFETCH MPKI: 0
L2C WRITEBACK ACCESS:     554588  HIT:     554584  MISS:          4  HIT %:    99.9993  MISS %: 0.000721256   MPKI: 0.00016
L2C LOAD TRANSLATION ACCESS:     622139  HIT:     235943  MISS:     386196  HIT %:    37.9245  MISS %:    62.0755   MPKI: 15.4478
L2C PREFETCH TRANSLATION ACCESS:     177579  HIT:     102756  MISS:      74823  HIT %:     57.865  MISS %:     42.135   MPKI: 2.99292
L2C TRANSLATION FROM L1D PREFETCHER ACCESS:        253  HIT:          1  MISS:        252  HIT %:   0.395257  MISS %:    99.6047   MPKI: 0.01008
L2C PREFETCH  REQUESTED:          0  ISSUED:          0  USEFUL:      56530  USELESS:    2035814
L2C USEFUL LOAD PREFETCHES:      56530 PREFETCH ISSUED TO LOWER LEVEL:    2022671  ACCURACY: 2.79482
L2C TIMELY PREFETCHES:      56530 LATE PREFETCHES: 0 DROPPED PREFETCHES: 0
L2C PREFETCHES SAME FILL-ORIGIN LEVEL: 0 DIFFERENT FILL-ORIGIN LEVEL: 0
L2C AVERAGE MISS LATENCY: 74.5758 cycles
L2C RQ	ACCESS:    2014630	FORWARD:          0	MERGED:          0	TO_CACHE:    2014630
L2C WQ	ACCESS:     554588	FORWARD:          0	MERGED:          0	TO_CACHE:     554588
L2C PQ	ACCESS:    2351971	FORWARD:          0	MERGED:          0	TO_CACHE:    2351971

L2C Instructions Evicting Data 0
L2C Translations Evicting Data 372888
L2C Data Evicting Data 2581432
L2C Instructions Evicting Instructions 0
L2C Translations Evicting Instructions 0
L2C Data Evicting Instructions 0
L2C Instructions Evicting Translations 0
L2C Translations Evicting Translations 88383
L2C Data Evicting Translations 374740
L2C Dense regions hint from L2: 0
PSCL5 TOTAL     ACCESS:     706609  HIT:     706609  MISS:          0  HIT %:        100  MISS %:          0   MPKI: 0
PSCL5 LOAD TRANSLATION ACCESS:     559872  HIT:     559872  MISS:          0  HIT %:        100  MISS %:          0   MPKI: 0
PSCL5 PREFETCH TRANSLATION ACCESS:     146610  HIT:     146610  MISS:          0  HIT %:        100  MISS %:          0   MPKI: 0
PSCL5 TRANSLATION FROM L1D PREFETCHER ACCESS:        127  HIT:        127  MISS:          0  HIT %:        100  MISS %:          0   MPKI: 0
PSCL5 PREFETCH  REQUESTED:          0  ISSUED:          0  USEFUL:          0  USELESS:          0
PSCL5 USEFUL LOAD PREFETCHES:          0 PREFETCH ISSUED TO LOWER LEVEL:          0  ACCURACY: -nan
PSCL5 TIMELY PREFETCHES:          0 LATE PREFETCHES: 0 DROPPED PREFETCHES: 0
PSCL5 PREFETCHES SAME FILL-ORIGIN LEVEL: 0 DIFFERENT FILL-ORIGIN LEVEL: 0

PSCL4 TOTAL     ACCESS:     706609  HIT:     706609  MISS:          0  HIT %:        100  MISS %:          0   MPKI: 0
PSCL4 LOAD TRANSLATION ACCESS:     559872  HIT:     559872  MISS:          0  HIT %:        100  MISS %:          0   MPKI: 0
PSCL4 PREFETCH TRANSLATION ACCESS:     146610  HIT:     146610  MISS:          0  HIT %:        100  MISS %:          0   MPKI: 0
PSCL4 TRANSLATION FROM L1D PREFETCHER ACCESS:        127  HIT:        127  MISS:          0  HIT %:        100  MISS %:          0   MPKI: 0
PSCL4 PREFETCH  REQUESTED:          0  ISSUED:          0  USEFUL:          0  USELESS:          0
PSCL4 USEFUL LOAD PREFETCHES:          0 PREFETCH ISSUED TO LOWER LEVEL:          0  ACCURACY: -nan
PSCL4 TIMELY PREFETCHES:          0 LATE PREFETCHES: 0 DROPPED PREFETCHES: 0
PSCL4 PREFETCHES SAME FILL-ORIGIN LEVEL: 0 DIFFERENT FILL-ORIGIN LEVEL: 0

PSCL3 TOTAL     ACCESS:     705272  HIT:     705272  MISS:          0  HIT %:        100  MISS %:          0   MPKI: 0
PSCL3 LOAD TRANSLATION ACCESS:     559872  HIT:     559872  MISS:          0  HIT %:        100  MISS %:          0   MPKI: 0
PSCL3 PREFETCH TRANSLATION ACCESS:     145273  HIT:     145273  MISS:          0  HIT %:        100  MISS %:          0   MPKI: 0
PSCL3 TRANSLATION FROM L1D PREFETCHER ACCESS:        127  HIT:        127  MISS:          0  HIT %:        100  MISS %:          0   MPKI: 0
PSCL3 PREFETCH  REQUESTED:          0  ISSUED:          0  USEFUL:          0  USELESS:          0
PSCL3 USEFUL LOAD PREFETCHES:          0 PREFETCH ISSUED TO LOWER LEVEL:          0  ACCURACY: -nan
PSCL3 TIMELY PREFETCHES:          0 LATE PREFETCHES: 0 DROPPED PREFETCHES: 0
PSCL3 PREFETCHES SAME FILL-ORIGIN LEVEL: 0 DIFFERENT FILL-ORIGIN LEVEL: 0

PSCL2 TOTAL     ACCESS:     687347  HIT:     610107  MISS:      77240  HIT %:    88.7626  MISS %:    11.2374   MPKI: 3.0896
PSCL2 LOAD TRANSLATION ACCESS:     574845  HIT:     497605  MISS:      77240  HIT %:    86.5633  MISS %:    13.4367   MPKI: 3.0896
PSCL2 PREFETCH TRANSLATION ACCESS:     112501  HIT:     112501  MISS:          0  HIT %:        100  MISS %:          0   MPKI: 0
PSCL2 TRANSLATION FROM L1D PREFETCHER ACCESS:          1  HIT:          1  MISS:          0  HIT %:        100  MISS %:          0   MPKI: 0
PSCL2 PREFETCH  REQUESTED:          0  ISSUED:          0  USEFUL:          0  USELESS:          0
PSCL2 USEFUL LOAD PREFETCHES:          0 PREFETCH ISSUED TO LOWER LEVEL:          0  ACCURACY: -nan
PSCL2 TIMELY PREFETCHES:          0 LATE PREFETCHES: 0 DROPPED PREFETCHES: 0
PSCL2 PREFETCHES SAME FILL-ORIGIN LEVEL: 0 DIFFERENT FILL-ORIGIN LEVEL: 0

LLC TOTAL     ACCESS:    3974784  HIT:    3211631  MISS:     763153  HIT %:    80.8001  MISS %:    19.1999   MPKI: 30.5261
LLC LOAD      ACCESS:     880823  HIT:     605085  MISS:     275738  HIT %:    68.6954  MISS %:    31.3046   MPKI: 11.0295
LLC RFO       ACCESS:      52681  HIT:      51780  MISS:        901  HIT %:    98.2897  MISS %:    1.71029   MPKI: 0.03604
LLC PREFETCH  ACCESS:    2022668  HIT:    1561934  MISS:     460734  HIT %:    77.2215  MISS %:    22.7785   MPKI: 18.4294
AGUS PREFETCH L1 MISS: 0
LLC WRITEBACK ACCESS:     557341  HIT:     557341  MISS:          0  HIT %:        100  MISS %:          0   MPKI: 0
LLC LOAD TRANSLATION ACCESS:     386196  HIT:     372424  MISS:      13772  HIT %:    96.4339  MISS %:    3.56606   MPKI: 0.55088
LLC PREFETCH TRANSLATION ACCESS:      74823  HIT:      62817  MISS:      12006  HIT %:    83.9541  MISS %:    16.0459   MPKI: 0.48024
LLC TRANSLATION FROM L1D PREFETCHER ACCESS:        252  HIT:        250  MISS:          2  HIT %:    99.2063  MISS %:   0.793651   MPKI: 8e-05
LLC PREFETCH  REQUESTED:          0  ISSUED:          0  USEFUL:     376697  USELESS:      81327
LLC USEFUL LOAD PREFETCHES:     376697 PREFETCH ISSUED TO LOWER LEVEL:     460737  ACCURACY: 81.7597
LLC TIMELY PREFETCHES:     376697 LATE PREFETCHES: 0 DROPPED PREFETCHES: 0
LLC PREFETCHES SAME FILL-ORIGIN LEVEL: 0 DIFFERENT FILL-ORIGIN LEVEL: 0
LLC AVERAGE MISS LATENCY: 197.382 cycles
LLC RQ	ACCESS:    1394777	FORWARD:          0	MERGED:          0	TO_CACHE:    1394777
LLC WQ	ACCESS:     557341	FORWARD:          0	MERGED:          0	TO_CACHE:     557341
LLC PQ	ACCESS:    2022671	FORWARD:          0	MERGED:          0	TO_CACHE:    2022671

LLC Dense regions hint to LLC: 0

RAW hits: 493584
Loads Generated: 6650537
Loads sent to L1D: 6156950
Stores Generated: 1108674
Stores sent to L1D: 1108674
Major fault: 0 Minor fault: 23115
Allocated PAGES: 23115
CPU 0 L1D optimized prefetcher final stats
Degree: 5
CPU 0 STLB arbitrary stride prefetcher final stats
Degree: 8

DRAM Statistics
 CHANNEL 0
 RQ ROW_BUFFER_HIT:       9032  ROW_BUFFER_MISS:     754121
 DBUS_CONGESTED:          5
 WQ ROW_BUFFER_HIT:     191970  ROW_BUFFER_MISS:     376891  FULL:          0

 AVG_CONGESTED_CYCLE: 5
 All warmup complete: 2
Channel 0 Bank busy for read cycles: 0
Channel 0 Bank busy for write cycles: 0
Channel 0
Rank 0
0banks busy for read cycles: 897666
0banks busy for write cycles: 19757
1banks busy for read cycles: 15530505
1banks busy for write cycles: 1625121
2banks busy for read cycles: 14530733
2banks busy for write cycles: 2456136
3banks busy for read cycles: 10952749
3banks busy for write cycles: 3686243
4banks busy for read cycles: 4501505
4banks busy for write cycles: 3283561
5banks busy for read cycles: 986257
5banks busy for write cycles: 1515550
6banks busy for read cycles: 1275811
6banks busy for write cycles: 737311
7banks busy for read cycles: 567185
7banks busy for write cycles: 968375
8banks busy for read cycles: 269628
8banks busy for write cycles: 10497302

CPU 0 Branch Prediction Accuracy: 99.9685% MPKI: 0.04912 Average ROB Occupancy at Mispredict: 155.342
Branch types
NOT_BRANCH: 21105622 84.4225%
BRANCH_DIRECT_JUMP: 568310 2.27324%
BRANCH_INDIRECT: 0 0%
BRANCH_CONDITIONAL: 2217333 8.86933%
BRANCH_DIRECT_CALL: 554334 2.21734%
BRANCH_INDIRECT_CALL: 0 0%
BRANCH_RETURN: 554333 2.21733%
BRANCH_OTHER: 0 0%

DRAM PAGES: 1048576
Allocated PAGES: 23115
