
*** ChampSim Multicore Out-of-Order Simulator ***

Warmup Instructions: 25000000
Simulation Instructions: 25000000
Number of CPUs: 1
LLC sets: 2048
LLC ways: 16
Off-chip DRAM Size: 4096 MB Channels: 1 Width: 64-bit Data Rate: 6400 MT/s
CPU 0 runs /home/yashas/CS683/pa2-lehra-do-prefetcher-wronganswersonly/traces/trace3.champsimtrace.xz
.xz
CPU 0 Bimodal branch predictor
BTB has LRU replacement policy
ITLB has LRU replacement policy
DTLB has LRU replacement policy
STLB has LRU replacement policy
L1I has LRU replacement policy
CPU 0 L1D Complex-Stride prefetcher
L1D has LRU replacement policy
L2C has LRU replacement policy
LLC has LRU replacement policy
Heartbeat CPU 0 instructions: 10000001 cycles: 3759678 heartbeat IPC: 2.6598 cumulative IPC: 2.6598 (Simulation time: 0 hr 0 min 23 sec) 
Heartbeat CPU 0 instructions: 20000000 cycles: 7490730 heartbeat IPC: 2.68021 cumulative IPC: 2.66997 (Simulation time: 0 hr 0 min 46 sec) 

Warmup complete CPU 0 instructions: 25000004 cycles: 9386761 (Simulation time: 0 hr 0 min 58 sec) 

Heartbeat CPU 0 instructions: 30000001 cycles: 39012734 heartbeat IPC: 0.317239 cumulative IPC: 0.168771 (Simulation time: 0 hr 1 min 21 sec) 
Heartbeat CPU 0 instructions: 40000001 cycles: 98632482 heartbeat IPC: 0.16773 cumulative IPC: 0.168075 (Simulation time: 0 hr 2 min 7 sec) 
Heartbeat CPU 0 instructions: 50000000 cycles: 161646971 heartbeat IPC: 0.158694 cumulative IPC: 0.164193 (Simulation time: 0 hr 2 min 55 sec) 
Finished CPU 0 instructions: 25000000 cycles: 152260212 cumulative IPC: 0.164193 (Simulation time: 0 hr 2 min 55 sec) 

ChampSim completed all CPUs

Region of Interest Statistics

CPU 0 cumulative IPC: 0.164193 instructions: 25000000 cycles: 152260212
ITLB TOTAL     ACCESS:    4046389  HIT:    4046389  MISS:          0  HIT %:        100  MISS %:          0   MPKI: 0
ITLB LOAD TRANSLATION ACCESS:    4046389  HIT:    4046389  MISS:          0  HIT %:        100  MISS %:          0   MPKI: 0
ITLB PREFETCH  REQUESTED:          0  ISSUED:          0  USEFUL:          0  USELESS:          0
ITLB USEFUL LOAD PREFETCHES:          0 PREFETCH ISSUED TO LOWER LEVEL:          0  ACCURACY: -nan
ITLB TIMELY PREFETCHES:          0 LATE PREFETCHES: 0 DROPPED PREFETCHES: 0
ITLB PREFETCHES SAME FILL-ORIGIN LEVEL: 0 DIFFERENT FILL-ORIGIN LEVEL: 0
ITLB AVERAGE MISS LATENCY: -nan cycles
ITLB RQ	ACCESS:    4097578	FORWARD:          0	MERGED:      51190	TO_CACHE:    4046388

DTLB TOTAL     ACCESS:    5230562  HIT:    3026433  MISS:    2204129  HIT %:    57.8606  MISS %:    42.1394   MPKI: 88.1652
DTLB LOAD TRANSLATION ACCESS:    5230562  HIT:    3026433  MISS:    2204129  HIT %:    57.8606  MISS %:    42.1394   MPKI: 88.1652
DTLB PREFETCH  REQUESTED:          0  ISSUED:          0  USEFUL:          0  USELESS:          0
DTLB USEFUL LOAD PREFETCHES:          0 PREFETCH ISSUED TO LOWER LEVEL:          0  ACCURACY: -nan
DTLB TIMELY PREFETCHES:          0 LATE PREFETCHES: 0 DROPPED PREFETCHES: 0
DTLB PREFETCHES SAME FILL-ORIGIN LEVEL: 0 DIFFERENT FILL-ORIGIN LEVEL: 0
DTLB AVERAGE MISS LATENCY: 11.1181 cycles
DTLB RQ	ACCESS:    5758107	FORWARD:          0	MERGED:     493334	TO_CACHE:    5264773

STLB TOTAL     ACCESS:    3106965  HIT:    3077883  MISS:      29082  HIT %:     99.064  MISS %:   0.936026   MPKI: 1.16328
STLB LOAD TRANSLATION ACCESS:    2204129  HIT:    2175047  MISS:      29082  HIT %:    98.6806  MISS %:    1.31943   MPKI: 1.16328
STLB TRANSLATION FROM L1D PREFETCHER ACCESS:     902836  HIT:     902836  MISS:          0  HIT %:        100  MISS %:          0   MPKI: 0
STLB PREFETCH  REQUESTED:          0  ISSUED:          0  USEFUL:          0  USELESS:          0
STLB USEFUL LOAD PREFETCHES:          0 PREFETCH ISSUED TO LOWER LEVEL:          0  ACCURACY: -nan
STLB TIMELY PREFETCHES:          0 LATE PREFETCHES: 0 DROPPED PREFETCHES: 0
STLB PREFETCHES SAME FILL-ORIGIN LEVEL: 0 DIFFERENT FILL-ORIGIN LEVEL: 0
STLB AVERAGE MISS LATENCY: 134.037 cycles
STLB RQ	ACCESS:    6180398	FORWARD:          0	MERGED:    3073433	TO_CACHE:    3106965

STLB Hit, L1D data hit: 0
STLB Hit, L2C data hit: 0
STLB Hit, LLC data hit: 0
STLB Hit, LLC data miss: 0
STLB STLB hints to L2: 0
L1D TOTAL     ACCESS:    8076575  HIT:    4166201  MISS:    3910374  HIT %:    51.5838  MISS %:    48.4162   MPKI: 156.415
L1D LOAD      ACCESS:    5233535  HIT:    2186874  MISS:    3046661  HIT %:    41.7858  MISS %:    58.2142   MPKI: 121.866
L1D RFO       ACCESS:     423986  HIT:     416085  MISS:       7901  HIT %:    98.1365  MISS %:     1.8635   MPKI: 0.31604
L1D PREFETCH  ACCESS:    2419054  HIT:    1563242  MISS:     855812  HIT %:     64.622  MISS %:     35.378   MPKI: 34.2325
AGUS PREFETCH L1 MISS: 0
L1D PREFETCH  REQUESTED:    9030376  ISSUED:    9029614  USEFUL:     828081  USELESS:      27728
L1D USEFUL LOAD PREFETCHES:     828081 PREFETCH ISSUED TO LOWER LEVEL:    1023807  ACCURACY: 80.8825
L1D TIMELY PREFETCHES:     828081 LATE PREFETCHES: 167995 DROPPED PREFETCHES: 0
L1D PREFETCHES SAME FILL-ORIGIN LEVEL: 1023807 DIFFERENT FILL-ORIGIN LEVEL: 0
L1D AVERAGE MISS LATENCY: 115.709 cycles
L1D RQ	ACCESS:    8951588	FORWARD:          0	MERGED:    3571755	TO_CACHE:    5314981
L1D WQ	ACCESS:     459661	FORWARD:      64852	MERGED:      16535	TO_CACHE:     443126
L1D PQ	ACCESS:    5053345	FORWARD:          0	MERGED:    1077076	TO_CACHE:    3976269

L1D UNIQUE REGIONS ACCESSED: 0
L1D REGIONS CONFLICTS: 0
L1D Cross Page Prefetch Requests: 0
L1D Same Page Prefetch Requests: 9310269
L1D ROI Sum of L1D PQ occupancy: 55177342
L1D PREFETCHES PUSHED FROM L2C: 0
L1I TOTAL     ACCESS:    4097579  HIT:    4097579  MISS:          0  HIT %:        100  MISS %:          0   MPKI: 0
L1I LOAD      ACCESS:    4097579  HIT:    4097579  MISS:          0  HIT %:        100  MISS %:          0   MPKI: 0
L1I PREFETCH  REQUESTED:          0  ISSUED:          0  USEFUL:          0  USELESS:          0
L1I USEFUL LOAD PREFETCHES:          0 PREFETCH ISSUED TO LOWER LEVEL:          0  ACCURACY: -nan
L1I TIMELY PREFETCHES:          0 LATE PREFETCHES: 0 DROPPED PREFETCHES: 0
L1I PREFETCHES SAME FILL-ORIGIN LEVEL: 0 DIFFERENT FILL-ORIGIN LEVEL: 0
L1I AVERAGE MISS LATENCY: -nan cycles
L1I RQ	ACCESS:    5500904	FORWARD:          0	MERGED:    1403326	TO_CACHE:    4097578

BTB TOTAL     ACCESS:    7381233  HIT:    7359090  MISS:      22143  HIT %:       99.7  MISS %:   0.299991   MPKI: 0.88572
BTB BRANCH_DIRECT_JUMP	ACCESS:     954613  HIT:     954578  MISS:         35
BTB BRANCH_INDIRECT	ACCESS:          0  HIT:          0  MISS:          0
BTB BRANCH_CONDITIONAL	ACCESS:    6254608  HIT:    6254529  MISS:         79
BTB BRANCH_DIRECT_CALL	ACCESS:      79755  HIT:      79739  MISS:         16
BTB BRANCH_INDIRECT_CALL	ACCESS:       6250  HIT:       6242  MISS:          8
BTB BRANCH_RETURN	ACCESS:      86007  HIT:      64002  MISS:      22005
BTB BRANCH_OTHER ACCESS:          0  HIT:          0  MISS:          0

L2C TOTAL     ACCESS:    4019377  HIT:     509949  MISS:    3509428  HIT %:    12.6873  MISS %:    87.3127   MPKI: 140.377
L2C LOAD      ACCESS:    2878661  HIT:     407443  MISS:    2471218  HIT %:    14.1539  MISS %:    85.8461   MPKI: 98.8487
L2C DATA LOAD MPKI: 98.8487
L2C INSTRUCTION LOAD MPKI: 0
L2C RFO       ACCESS:       7901  HIT:        764  MISS:       7137  HIT %:    9.66966  MISS %:    90.3303   MPKI: 0.28548
L2C PREFETCH  ACCESS:    1023807  HIT:       1851  MISS:    1021956  HIT %:   0.180796  MISS %:    99.8192   MPKI: 40.8782
AGUS PREFETCH L1 MISS: 0
L2C DATA PREFETCH MPKI: 40.8782
L2C INSTRUCTION PREFETCH MPKI: 0
L2C WRITEBACK ACCESS:      79753  HIT:      79753  MISS:          0  HIT %:        100  MISS %:          0   MPKI: 0
L2C LOAD TRANSLATION ACCESS:      29255  HIT:      20138  MISS:       9117  HIT %:    68.8361  MISS %:    31.1639   MPKI: 0.36468
L2C PREFETCH  REQUESTED:          0  ISSUED:          0  USEFUL:       1908  USELESS:    1020272
L2C USEFUL LOAD PREFETCHES:       1908 PREFETCH ISSUED TO LOWER LEVEL:    1021956  ACCURACY: 0.186701
L2C TIMELY PREFETCHES:       1908 LATE PREFETCHES: 0 DROPPED PREFETCHES: 0
L2C PREFETCHES SAME FILL-ORIGIN LEVEL: 0 DIFFERENT FILL-ORIGIN LEVEL: 0
L2C AVERAGE MISS LATENCY: 112.184 cycles
L2C RQ	ACCESS:    2915822	FORWARD:          0	MERGED:          0	TO_CACHE:    2915817
L2C WQ	ACCESS:      79753	FORWARD:          5	MERGED:          0	TO_CACHE:      79753
L2C PQ	ACCESS:    1023807	FORWARD:          0	MERGED:          0	TO_CACHE:    1023807

L2C Instructions Evicting Data 0
L2C Translations Evicting Data 9095
L2C Data Evicting Data 3491238
L2C Instructions Evicting Instructions 0
L2C Translations Evicting Instructions 0
L2C Data Evicting Instructions 0
L2C Instructions Evicting Translations 0
L2C Translations Evicting Translations 22
L2C Data Evicting Translations 9073
L2C Dense regions hint from L2: 0
PSCL5 TOTAL     ACCESS:      29082  HIT:      29082  MISS:          0  HIT %:        100  MISS %:          0   MPKI: 0
PSCL5 LOAD TRANSLATION ACCESS:      29082  HIT:      29082  MISS:          0  HIT %:        100  MISS %:          0   MPKI: 0
PSCL5 PREFETCH  REQUESTED:          0  ISSUED:          0  USEFUL:          0  USELESS:          0
PSCL5 USEFUL LOAD PREFETCHES:          0 PREFETCH ISSUED TO LOWER LEVEL:          0  ACCURACY: -nan
PSCL5 TIMELY PREFETCHES:          0 LATE PREFETCHES: 0 DROPPED PREFETCHES: 0
PSCL5 PREFETCHES SAME FILL-ORIGIN LEVEL: 0 DIFFERENT FILL-ORIGIN LEVEL: 0

PSCL4 TOTAL     ACCESS:      29082  HIT:      29082  MISS:          0  HIT %:        100  MISS %:          0   MPKI: 0
PSCL4 LOAD TRANSLATION ACCESS:      29082  HIT:      29082  MISS:          0  HIT %:        100  MISS %:          0   MPKI: 0
PSCL4 PREFETCH  REQUESTED:          0  ISSUED:          0  USEFUL:          0  USELESS:          0
PSCL4 USEFUL LOAD PREFETCHES:          0 PREFETCH ISSUED TO LOWER LEVEL:          0  ACCURACY: -nan
PSCL4 TIMELY PREFETCHES:          0 LATE PREFETCHES: 0 DROPPED PREFETCHES: 0
PSCL4 PREFETCHES SAME FILL-ORIGIN LEVEL: 0 DIFFERENT FILL-ORIGIN LEVEL: 0

PSCL3 TOTAL     ACCESS:      29082  HIT:      29082  MISS:          0  HIT %:        100  MISS %:          0   MPKI: 0
PSCL3 LOAD TRANSLATION ACCESS:      29082  HIT:      29082  MISS:          0  HIT %:        100  MISS %:          0   MPKI: 0
PSCL3 PREFETCH  REQUESTED:          0  ISSUED:          0  USEFUL:          0  USELESS:          0
PSCL3 USEFUL LOAD PREFETCHES:          0 PREFETCH ISSUED TO LOWER LEVEL:          0  ACCURACY: -nan
PSCL3 TIMELY PREFETCHES:          0 LATE PREFETCHES: 0 DROPPED PREFETCHES: 0
PSCL3 PREFETCHES SAME FILL-ORIGIN LEVEL: 0 DIFFERENT FILL-ORIGIN LEVEL: 0

PSCL2 TOTAL     ACCESS:      29082  HIT:      28773  MISS:        309  HIT %:    98.9375  MISS %:    1.06251   MPKI: 0.01236
PSCL2 LOAD TRANSLATION ACCESS:      29082  HIT:      28773  MISS:        309  HIT %:    98.9375  MISS %:    1.06251   MPKI: 0.01236
PSCL2 PREFETCH  REQUESTED:          0  ISSUED:          0  USEFUL:          0  USELESS:          0
PSCL2 USEFUL LOAD PREFETCHES:          0 PREFETCH ISSUED TO LOWER LEVEL:          0  ACCURACY: -nan
PSCL2 TIMELY PREFETCHES:          0 LATE PREFETCHES: 0 DROPPED PREFETCHES: 0
PSCL2 PREFETCHES SAME FILL-ORIGIN LEVEL: 0 DIFFERENT FILL-ORIGIN LEVEL: 0

LLC TOTAL     ACCESS:    3584946  HIT:    1568995  MISS:    2015951  HIT %:    43.7662  MISS %:    56.2338   MPKI: 80.638
LLC LOAD      ACCESS:    2471218  HIT:    1478521  MISS:     992697  HIT %:    59.8296  MISS %:    40.1704   MPKI: 39.7079
LLC RFO       ACCESS:       7137  HIT:       6002  MISS:       1135  HIT %:     84.097  MISS %:     15.903   MPKI: 0.0454
LLC PREFETCH  ACCESS:    1021956  HIT:       5097  MISS:    1016859  HIT %:   0.498749  MISS %:    99.5013   MPKI: 40.6744
AGUS PREFETCH L1 MISS: 0
LLC WRITEBACK ACCESS:      75518  HIT:      75399  MISS:        119  HIT %:    99.8424  MISS %:   0.157578   MPKI: 0.00476
LLC LOAD TRANSLATION ACCESS:       9117  HIT:       3976  MISS:       5141  HIT %:    43.6108  MISS %:    56.3892   MPKI: 0.20564
LLC PREFETCH  REQUESTED:          0  ISSUED:          0  USEFUL:       2115  USELESS:    1014862
LLC USEFUL LOAD PREFETCHES:       2115 PREFETCH ISSUED TO LOWER LEVEL:    1016859  ACCURACY: 0.207993
LLC TIMELY PREFETCHES:       2115 LATE PREFETCHES: 0 DROPPED PREFETCHES: 0
LLC PREFETCHES SAME FILL-ORIGIN LEVEL: 0 DIFFERENT FILL-ORIGIN LEVEL: 0
LLC AVERAGE MISS LATENCY: 142.489 cycles
LLC RQ	ACCESS:    2487472	FORWARD:          0	MERGED:          0	TO_CACHE:    2487472
LLC WQ	ACCESS:      75518	FORWARD:          0	MERGED:          0	TO_CACHE:      75518
LLC PQ	ACCESS:    1021956	FORWARD:          0	MERGED:          0	TO_CACHE:    1021956

LLC Dense regions hint to LLC: 0

RAW hits: 62739
Loads Generated: 9014327
Loads sent to L1D: 8951588
Stores Generated: 459660
Stores sent to L1D: 459661
Major fault: 0 Minor fault: 44120
Allocated PAGES: 44120
CPU 0 L1D complex stride prefetcher final stats
Degree: 5

DRAM Statistics
 CHANNEL 0
 RQ ROW_BUFFER_HIT:     932210  ROW_BUFFER_MISS:    1083607
 DBUS_CONGESTED:        258
 WQ ROW_BUFFER_HIT:      10707  ROW_BUFFER_MISS:      29088  FULL:          0

 AVG_CONGESTED_CYCLE: 4
 All warmup complete: 2
Channel 0 Bank busy for read cycles: 0
Channel 0 Bank busy for write cycles: 0
Channel 0
Rank 0
0banks busy for read cycles: 55757971
0banks busy for write cycles: 15098
1banks busy for read cycles: 40258834
1banks busy for write cycles: 2846878
2banks busy for read cycles: 21566535
2banks busy for write cycles: 586651
3banks busy for read cycles: 12869170
3banks busy for write cycles: 243916
4banks busy for read cycles: 8041391
4banks busy for write cycles: 148676
5banks busy for read cycles: 4468410
5banks busy for write cycles: 116390
6banks busy for read cycles: 2480402
6banks busy for write cycles: 108232
7banks busy for read cycles: 1551610
7banks busy for write cycles: 126069
8banks busy for read cycles: 865530
8banks busy for write cycles: 208450

CPU 0 Branch Prediction Accuracy: 96.3142% MPKI: 11.2642 Average ROB Occupancy at Mispredict: 46.2968
Branch types
NOT_BRANCH: 17359361 69.4374%
BRANCH_DIRECT_JUMP: 954613 3.81845%
BRANCH_INDIRECT: 0 0%
BRANCH_CONDITIONAL: 6513665 26.0547%
BRANCH_DIRECT_CALL: 79755 0.31902%
BRANCH_INDIRECT_CALL: 6250 0.025%
BRANCH_RETURN: 86007 0.344028%
BRANCH_OTHER: 0 0%

DRAM PAGES: 1048576
Allocated PAGES: 44120
