
*** ChampSim Multicore Out-of-Order Simulator ***

Warmup Instructions: 25000000
Simulation Instructions: 25000000
Number of CPUs: 1
LLC sets: 2048
LLC ways: 16
Off-chip DRAM Size: 4096 MB Channels: 1 Width: 64-bit Data Rate: 6400 MT/s
CPU 0 runs /home/yashas/CS683/pa2-lehra-do-prefetcher-wronganswersonly/traces/trace3.champsimtrace.xz
.xz
CPU 0 Bimodal branch predictor
BTB has LRU replacement policy
ITLB has LRU replacement policy
DTLB has LRU replacement policy
CPU 0 STLB arbitrary stride prefetcher
STLB has LRU replacement policy
L1I has LRU replacement policy
CPU 0 L1D Optimized prefetcher
L1D has LRU replacement policy
L2C has LRU replacement policy
LLC has LRU replacement policy
Heartbeat CPU 0 instructions: 10000001 cycles: 3773608 heartbeat IPC: 2.64998 cumulative IPC: 2.64998 (Simulation time: 0 hr 0 min 19 sec) 
Heartbeat CPU 0 instructions: 20000000 cycles: 7519128 heartbeat IPC: 2.66986 cumulative IPC: 2.65988 (Simulation time: 0 hr 0 min 38 sec) 

Warmup complete CPU 0 instructions: 25000004 cycles: 9422592 (Simulation time: 0 hr 0 min 48 sec) 

IP_STRIDE Accuracy is 145.455 
Switching to CPLX L1D prefetcher
CPLX Accuracy is 28.125 
Switching to NL L1D prefetcher
NL Accuracy is 7.31707 
Prefetcher set to IP_STRIDE
Heartbeat CPU 0 instructions: 30000001 cycles: 37659612 heartbeat IPC: 0.33178 cumulative IPC: 0.177072 (Simulation time: 0 hr 1 min 9 sec) 
Heartbeat CPU 0 instructions: 40000002 cycles: 94552447 heartbeat IPC: 0.175769 cumulative IPC: 0.176201 (Simulation time: 0 hr 1 min 51 sec) 
Heartbeat CPU 0 instructions: 50000000 cycles: 154782968 heartbeat IPC: 0.166029 cumulative IPC: 0.171986 (Simulation time: 0 hr 2 min 34 sec) 
Finished CPU 0 instructions: 25000000 cycles: 145360378 cumulative IPC: 0.171986 (Simulation time: 0 hr 2 min 34 sec) 

ChampSim completed all CPUs

Region of Interest Statistics

CPU 0 cumulative IPC: 0.171986 instructions: 25000000 cycles: 145360378
ITLB TOTAL     ACCESS:    4038420  HIT:    4038420  MISS:          0  HIT %:        100  MISS %:          0   MPKI: 0
ITLB LOAD TRANSLATION ACCESS:    4038420  HIT:    4038420  MISS:          0  HIT %:        100  MISS %:          0   MPKI: 0
ITLB PREFETCH  REQUESTED:          0  ISSUED:          0  USEFUL:          0  USELESS:          0
ITLB USEFUL LOAD PREFETCHES:          0 PREFETCH ISSUED TO LOWER LEVEL:          0  ACCURACY: -nan
ITLB TIMELY PREFETCHES:          0 LATE PREFETCHES: 0 DROPPED PREFETCHES: 0
ITLB PREFETCHES SAME FILL-ORIGIN LEVEL: 0 DIFFERENT FILL-ORIGIN LEVEL: 0
ITLB AVERAGE MISS LATENCY: -nan cycles
ITLB RQ	ACCESS:    4089624	FORWARD:          0	MERGED:      51205	TO_CACHE:    4038419

DTLB TOTAL     ACCESS:    5228582  HIT:    3024736  MISS:    2203846  HIT %:      57.85  MISS %:      42.15   MPKI: 88.1538
DTLB LOAD TRANSLATION ACCESS:    5228582  HIT:    3024736  MISS:    2203846  HIT %:      57.85  MISS %:      42.15   MPKI: 88.1538
DTLB PREFETCH  REQUESTED:          0  ISSUED:          0  USEFUL:          0  USELESS:          0
DTLB USEFUL LOAD PREFETCHES:          0 PREFETCH ISSUED TO LOWER LEVEL:          0  ACCURACY: -nan
DTLB TIMELY PREFETCHES:          0 LATE PREFETCHES: 0 DROPPED PREFETCHES: 0
DTLB PREFETCHES SAME FILL-ORIGIN LEVEL: 0 DIFFERENT FILL-ORIGIN LEVEL: 0
DTLB AVERAGE MISS LATENCY: 11.0269 cycles
DTLB RQ	ACCESS:    5753276	FORWARD:          0	MERGED:     495800	TO_CACHE:    5257476

STLB TOTAL     ACCESS:    2989600  HIT:    2956127  MISS:      33473  HIT %:    98.8804  MISS %:    1.11965   MPKI: 1.33892
STLB LOAD TRANSLATION ACCESS:    2203846  HIT:    2172765  MISS:      31081  HIT %:    98.5897  MISS %:    1.41031   MPKI: 1.24324
STLB PREFETCH TRANSLATION ACCESS:     172760  HIT:     170368  MISS:       2392  HIT %:    98.6154  MISS %:    1.38458   MPKI: 0.09568
STLB TRANSLATION FROM L1D PREFETCHER ACCESS:     612994  HIT:     612994  MISS:          0  HIT %:        100  MISS %:          0   MPKI: 0
STLB PREFETCH  REQUESTED:     341928  ISSUED:     336016  USEFUL:        476  USELESS:       1898
STLB USEFUL LOAD PREFETCHES:        476 PREFETCH ISSUED TO LOWER LEVEL:     164855  ACCURACY: 0.288739
STLB TIMELY PREFETCHES:        476 LATE PREFETCHES: 17 DROPPED PREFETCHES: 162446
STLB PREFETCHES SAME FILL-ORIGIN LEVEL: 164855 DIFFERENT FILL-ORIGIN LEVEL: 0
STLB AVERAGE MISS LATENCY: 122.882 cycles
STLB RQ	ACCESS:    5213739	FORWARD:          0	MERGED:    2396899	TO_CACHE:    2816840
STLB PQ	ACCESS:     336016	FORWARD:          0	MERGED:        697	TO_CACHE:     335319

STLB Hit, L1D data hit: 0
STLB Hit, L2C data hit: 0
STLB Hit, LLC data hit: 0
STLB Hit, LLC data miss: 0
STLB STLB hints to L2: 0
L1D TOTAL     ACCESS:    7201000  HIT:    3317313  MISS:    3883687  HIT %:    46.0674  MISS %:    53.9326   MPKI: 155.347
L1D LOAD      ACCESS:    5250276  HIT:    2132824  MISS:    3117452  HIT %:    40.6231  MISS %:    59.3769   MPKI: 124.698
L1D RFO       ACCESS:     424066  HIT:     416239  MISS:       7827  HIT %:    98.1543  MISS %:     1.8457   MPKI: 0.31308
L1D PREFETCH  ACCESS:    1526658  HIT:     768250  MISS:     758408  HIT %:    50.3223  MISS %:    49.6777   MPKI: 30.3363
AGUS PREFETCH L1 MISS: 0
L1D PREFETCH  REQUESTED:    6614264  ISSUED:    6614214  USEFUL:     756878  USELESS:       1528
L1D USEFUL LOAD PREFETCHES:     756878 PREFETCH ISSUED TO LOWER LEVEL:    1168633  ACCURACY: 64.7661
L1D TIMELY PREFETCHES:     756878 LATE PREFETCHES: 410225 DROPPED PREFETCHES: 0
L1D PREFETCHES SAME FILL-ORIGIN LEVEL: 1168633 DIFFERENT FILL-ORIGIN LEVEL: 0
L1D AVERAGE MISS LATENCY: 114.049 cycles
L1D RQ	ACCESS:    8951612	FORWARD:          0	MERGED:    3576611	TO_CACHE:    5310160
L1D WQ	ACCESS:     459661	FORWARD:      64841	MERGED:      16545	TO_CACHE:     443116
L1D PQ	ACCESS:    3604321	FORWARD:          0	MERGED:     594428	TO_CACHE:    3009893

L1D UNIQUE REGIONS ACCESSED: 0
L1D REGIONS CONFLICTS: 0
L1D Cross Page Prefetch Requests: 0
L1D Same Page Prefetch Requests: 3604321
L1D ROI Sum of L1D PQ occupancy: 41365810
L1D PREFETCHES PUSHED FROM L2C: 0
L1I TOTAL     ACCESS:    4089625  HIT:    4089625  MISS:          0  HIT %:        100  MISS %:          0   MPKI: 0
L1I LOAD      ACCESS:    4089625  HIT:    4089625  MISS:          0  HIT %:        100  MISS %:          0   MPKI: 0
L1I PREFETCH  REQUESTED:          0  ISSUED:          0  USEFUL:          0  USELESS:          0
L1I USEFUL LOAD PREFETCHES:          0 PREFETCH ISSUED TO LOWER LEVEL:          0  ACCURACY: -nan
L1I TIMELY PREFETCHES:          0 LATE PREFETCHES: 0 DROPPED PREFETCHES: 0
L1I PREFETCHES SAME FILL-ORIGIN LEVEL: 0 DIFFERENT FILL-ORIGIN LEVEL: 0
L1I AVERAGE MISS LATENCY: -nan cycles
L1I RQ	ACCESS:    5489038	FORWARD:          0	MERGED:    1399414	TO_CACHE:    4089624

BTB TOTAL     ACCESS:    7381233  HIT:    7359090  MISS:      22143  HIT %:       99.7  MISS %:   0.299991   MPKI: 0.88572
BTB BRANCH_DIRECT_JUMP	ACCESS:     954613  HIT:     954578  MISS:         35
BTB BRANCH_INDIRECT	ACCESS:          0  HIT:          0  MISS:          0
BTB BRANCH_CONDITIONAL	ACCESS:    6254608  HIT:    6254529  MISS:         79
BTB BRANCH_DIRECT_CALL	ACCESS:      79755  HIT:      79739  MISS:         16
BTB BRANCH_INDIRECT_CALL	ACCESS:       6250  HIT:       6242  MISS:          8
BTB BRANCH_RETURN	ACCESS:      86007  HIT:      64002  MISS:      22005
BTB BRANCH_OTHER ACCESS:          0  HIT:          0  MISS:          0

L2C TOTAL     ACCESS:    4159669  HIT:     674060  MISS:    3485609  HIT %:    16.2047  MISS %:    83.7953   MPKI: 139.424
L2C LOAD      ACCESS:    2707221  HIT:     410425  MISS:    2296796  HIT %:    15.1604  MISS %:    84.8396   MPKI: 91.8718
L2C DATA LOAD MPKI: 91.8718
L2C INSTRUCTION LOAD MPKI: 0
L2C RFO       ACCESS:       7827  HIT:        769  MISS:       7058  HIT %:    9.82496  MISS %:     90.175   MPKI: 0.28232
L2C PREFETCH  ACCESS:    1168633  HIT:        184  MISS:    1168449  HIT %:  0.0157449  MISS %:    99.9843   MPKI: 46.738
AGUS PREFETCH L1 MISS: 0
L2C DATA PREFETCH MPKI: 46.738
L2C INSTRUCTION PREFETCH MPKI: 0
L2C WRITEBACK ACCESS:      79749  HIT:      79749  MISS:          0  HIT %:        100  MISS %:          0   MPKI: 0
L2C LOAD TRANSLATION ACCESS:      31241  HIT:      23616  MISS:       7625  HIT %:     75.593  MISS %:     24.407   MPKI: 0.305
L2C PREFETCH TRANSLATION ACCESS:     164998  HIT:     159317  MISS:       5681  HIT %:    96.5569  MISS %:    3.44307   MPKI: 0.22724
L2C PREFETCH  REQUESTED:          0  ISSUED:          0  USEFUL:       4223  USELESS:    1167290
L2C USEFUL LOAD PREFETCHES:       4223 PREFETCH ISSUED TO LOWER LEVEL:    1168449  ACCURACY: 0.361419
L2C TIMELY PREFETCHES:       4223 LATE PREFETCHES: 0 DROPPED PREFETCHES: 0
L2C PREFETCHES SAME FILL-ORIGIN LEVEL: 0 DIFFERENT FILL-ORIGIN LEVEL: 0
L2C AVERAGE MISS LATENCY: 110.273 cycles
L2C RQ	ACCESS:    2911293	FORWARD:          0	MERGED:          0	TO_CACHE:    2911287
L2C WQ	ACCESS:      79749	FORWARD:          6	MERGED:          0	TO_CACHE:      79749
L2C PQ	ACCESS:    1168633	FORWARD:          0	MERGED:          0	TO_CACHE:    1168633

L2C Instructions Evicting Data 0
L2C Translations Evicting Data 13267
L2C Data Evicting Data 3459065
L2C Instructions Evicting Instructions 0
L2C Translations Evicting Instructions 0
L2C Data Evicting Instructions 0
L2C Instructions Evicting Translations 0
L2C Translations Evicting Translations 39
L2C Data Evicting Translations 13238
L2C Dense regions hint from L2: 0
PSCL5 TOTAL     ACCESS:     195919  HIT:     195919  MISS:          0  HIT %:        100  MISS %:          0   MPKI: 0
PSCL5 LOAD TRANSLATION ACCESS:      31064  HIT:      31064  MISS:          0  HIT %:        100  MISS %:          0   MPKI: 0
PSCL5 PREFETCH TRANSLATION ACCESS:     164855  HIT:     164855  MISS:          0  HIT %:        100  MISS %:          0   MPKI: 0
PSCL5 PREFETCH  REQUESTED:          0  ISSUED:          0  USEFUL:          0  USELESS:          0
PSCL5 USEFUL LOAD PREFETCHES:          0 PREFETCH ISSUED TO LOWER LEVEL:          0  ACCURACY: -nan
PSCL5 TIMELY PREFETCHES:          0 LATE PREFETCHES: 0 DROPPED PREFETCHES: 0
PSCL5 PREFETCHES SAME FILL-ORIGIN LEVEL: 0 DIFFERENT FILL-ORIGIN LEVEL: 0

PSCL4 TOTAL     ACCESS:     195919  HIT:     195919  MISS:          0  HIT %:        100  MISS %:          0   MPKI: 0
PSCL4 LOAD TRANSLATION ACCESS:      31064  HIT:      31064  MISS:          0  HIT %:        100  MISS %:          0   MPKI: 0
PSCL4 PREFETCH TRANSLATION ACCESS:     164855  HIT:     164855  MISS:          0  HIT %:        100  MISS %:          0   MPKI: 0
PSCL4 PREFETCH  REQUESTED:          0  ISSUED:          0  USEFUL:          0  USELESS:          0
PSCL4 USEFUL LOAD PREFETCHES:          0 PREFETCH ISSUED TO LOWER LEVEL:          0  ACCURACY: -nan
PSCL4 TIMELY PREFETCHES:          0 LATE PREFETCHES: 0 DROPPED PREFETCHES: 0
PSCL4 PREFETCHES SAME FILL-ORIGIN LEVEL: 0 DIFFERENT FILL-ORIGIN LEVEL: 0

PSCL3 TOTAL     ACCESS:     195919  HIT:     195919  MISS:          0  HIT %:        100  MISS %:          0   MPKI: 0
PSCL3 LOAD TRANSLATION ACCESS:      31064  HIT:      31064  MISS:          0  HIT %:        100  MISS %:          0   MPKI: 0
PSCL3 PREFETCH TRANSLATION ACCESS:     164855  HIT:     164855  MISS:          0  HIT %:        100  MISS %:          0   MPKI: 0
PSCL3 PREFETCH  REQUESTED:          0  ISSUED:          0  USEFUL:          0  USELESS:          0
PSCL3 USEFUL LOAD PREFETCHES:          0 PREFETCH ISSUED TO LOWER LEVEL:          0  ACCURACY: -nan
PSCL3 TIMELY PREFETCHES:          0 LATE PREFETCHES: 0 DROPPED PREFETCHES: 0
PSCL3 PREFETCHES SAME FILL-ORIGIN LEVEL: 0 DIFFERENT FILL-ORIGIN LEVEL: 0

PSCL2 TOTAL     ACCESS:     193715  HIT:     193385  MISS:        330  HIT %:    99.8296  MISS %:   0.170353   MPKI: 0.0132
PSCL2 LOAD TRANSLATION ACCESS:      31081  HIT:      30751  MISS:        330  HIT %:    98.9383  MISS %:    1.06174   MPKI: 0.0132
PSCL2 PREFETCH TRANSLATION ACCESS:     162634  HIT:     162634  MISS:          0  HIT %:        100  MISS %:          0   MPKI: 0
PSCL2 PREFETCH  REQUESTED:          0  ISSUED:          0  USEFUL:          0  USELESS:          0
PSCL2 USEFUL LOAD PREFETCHES:          0 PREFETCH ISSUED TO LOWER LEVEL:          0  ACCURACY: -nan
PSCL2 TIMELY PREFETCHES:          0 LATE PREFETCHES: 0 DROPPED PREFETCHES: 0
PSCL2 PREFETCHES SAME FILL-ORIGIN LEVEL: 0 DIFFERENT FILL-ORIGIN LEVEL: 0

LLC TOTAL     ACCESS:    3561204  HIT:    1563979  MISS:    1997225  HIT %:    43.9171  MISS %:    56.0829   MPKI: 79.889
LLC LOAD      ACCESS:    2296796  HIT:    1474430  MISS:     822366  HIT %:    64.1951  MISS %:    35.8049   MPKI: 32.8946
LLC RFO       ACCESS:       7058  HIT:       5923  MISS:       1135  HIT %:     83.919  MISS %:     16.081   MPKI: 0.0454
LLC PREFETCH  ACCESS:    1168449  HIT:       1015  MISS:    1167434  HIT %:  0.0868673  MISS %:    99.9131   MPKI: 46.6974
AGUS PREFETCH L1 MISS: 0
LLC WRITEBACK ACCESS:      75595  HIT:      75473  MISS:        122  HIT %:    99.8386  MISS %:   0.161386   MPKI: 0.00488
LLC LOAD TRANSLATION ACCESS:       7625  HIT:       5035  MISS:       2590  HIT %:    66.0328  MISS %:    33.9672   MPKI: 0.1036
LLC PREFETCH TRANSLATION ACCESS:       5681  HIT:       2103  MISS:       3578  HIT %:    37.0181  MISS %:    62.9819   MPKI: 0.14312
LLC PREFETCH  REQUESTED:          0  ISSUED:          0  USEFUL:       1175  USELESS:    1154119
LLC USEFUL LOAD PREFETCHES:       1175 PREFETCH ISSUED TO LOWER LEVEL:    1167434  ACCURACY: 0.100648
LLC TIMELY PREFETCHES:       1175 LATE PREFETCHES: 0 DROPPED PREFETCHES: 0
LLC PREFETCHES SAME FILL-ORIGIN LEVEL: 0 DIFFERENT FILL-ORIGIN LEVEL: 0
LLC AVERAGE MISS LATENCY: 139.412 cycles
LLC RQ	ACCESS:    2317160	FORWARD:          0	MERGED:          0	TO_CACHE:    2317160
LLC WQ	ACCESS:      75595	FORWARD:          0	MERGED:          0	TO_CACHE:      75595
LLC PQ	ACCESS:    1168449	FORWARD:          0	MERGED:          0	TO_CACHE:    1168449

LLC Dense regions hint to LLC: 0

RAW hits: 62715
Loads Generated: 9014327
Loads sent to L1D: 8951612
Stores Generated: 459660
Stores sent to L1D: 459661
Major fault: 0 Minor fault: 44120
Allocated PAGES: 44120
CPU 0 L1D optimized prefetcher final stats
Degree: 5
CPU 0 STLB arbitrary stride prefetcher final stats
Degree: 8

DRAM Statistics
 CHANNEL 0
 RQ ROW_BUFFER_HIT:     923287  ROW_BUFFER_MISS:    1073796
 DBUS_CONGESTED:        254
 WQ ROW_BUFFER_HIT:       9614  ROW_BUFFER_MISS:      30169  FULL:          0

 AVG_CONGESTED_CYCLE: 4
 All warmup complete: 2
Channel 0 Bank busy for read cycles: 0
Channel 0 Bank busy for write cycles: 0
Channel 0
Rank 0
0banks busy for read cycles: 54658931
0banks busy for write cycles: 15123
1banks busy for read cycles: 37000343
1banks busy for write cycles: 2773773
2banks busy for read cycles: 19317227
2banks busy for write cycles: 573963
3banks busy for read cycles: 11504944
3banks busy for write cycles: 239533
4banks busy for read cycles: 6844088
4banks busy for write cycles: 147472
5banks busy for read cycles: 5100769
5banks busy for write cycles: 118773
6banks busy for read cycles: 3569394
6banks busy for write cycles: 106158
7banks busy for read cycles: 1720166
7banks busy for write cycles: 127425
8banks busy for read cycles: 1345873
8banks busy for write cycles: 196424

CPU 0 Branch Prediction Accuracy: 96.3142% MPKI: 11.2642 Average ROB Occupancy at Mispredict: 45.6085
Branch types
NOT_BRANCH: 17359361 69.4374%
BRANCH_DIRECT_JUMP: 954613 3.81845%
BRANCH_INDIRECT: 0 0%
BRANCH_CONDITIONAL: 6513665 26.0547%
BRANCH_DIRECT_CALL: 79755 0.31902%
BRANCH_INDIRECT_CALL: 6250 0.025%
BRANCH_RETURN: 86007 0.344028%
BRANCH_OTHER: 0 0%

DRAM PAGES: 1048576
Allocated PAGES: 44120
