
*** ChampSim Multicore Out-of-Order Simulator ***

Warmup Instructions: 25000000
Simulation Instructions: 25000000
Number of CPUs: 1
LLC sets: 2048
LLC ways: 16
Off-chip DRAM Size: 4096 MB Channels: 1 Width: 64-bit Data Rate: 6400 MT/s
CPU 0 runs /home/yashas/CS683/pa2-lehra-do-prefetcher-wronganswersonly/traces/trace1.champsimtrace.xz
.xz
CPU 0 Bimodal branch predictor
BTB has LRU replacement policy
ITLB has LRU replacement policy
DTLB has LRU replacement policy
STLB has LRU replacement policy
L1I has LRU replacement policy
CPU 0 L1D Complex-Stride prefetcher
L1D has LRU replacement policy
L2C has LRU replacement policy
LLC has LRU replacement policy
Heartbeat CPU 0 instructions: 10000003 cycles: 2830061 heartbeat IPC: 3.53349 cumulative IPC: 3.53349 (Simulation time: 0 hr 0 min 15 sec) 
Heartbeat CPU 0 instructions: 20000003 cycles: 5650243 heartbeat IPC: 3.54587 cumulative IPC: 3.53967 (Simulation time: 0 hr 0 min 30 sec) 

Warmup complete CPU 0 instructions: 25000004 cycles: 7064397 (Simulation time: 0 hr 0 min 38 sec) 

Heartbeat CPU 0 instructions: 30000002 cycles: 23982460 heartbeat IPC: 0.545488 cumulative IPC: 0.295542 (Simulation time: 0 hr 0 min 59 sec) 
Heartbeat CPU 0 instructions: 40000001 cycles: 60318291 heartbeat IPC: 0.27521 cumulative IPC: 0.281669 (Simulation time: 0 hr 1 min 42 sec) 
Heartbeat CPU 0 instructions: 50000000 cycles: 95489161 heartbeat IPC: 0.284326 cumulative IPC: 0.282726 (Simulation time: 0 hr 2 min 25 sec) 
Finished CPU 0 instructions: 25000000 cycles: 88424766 cumulative IPC: 0.282726 (Simulation time: 0 hr 2 min 25 sec) 

ChampSim completed all CPUs

Region of Interest Statistics

CPU 0 cumulative IPC: 0.282726 instructions: 25000000 cycles: 88424766
ITLB TOTAL     ACCESS:    4438090  HIT:    4438090  MISS:          0  HIT %:        100  MISS %:          0   MPKI: 0
ITLB LOAD TRANSLATION ACCESS:    4438090  HIT:    4438090  MISS:          0  HIT %:        100  MISS %:          0   MPKI: 0
ITLB PREFETCH  REQUESTED:          0  ISSUED:          0  USEFUL:          0  USELESS:          0
ITLB USEFUL LOAD PREFETCHES:          0 PREFETCH ISSUED TO LOWER LEVEL:          0  ACCURACY: -nan
ITLB TIMELY PREFETCHES:          0 LATE PREFETCHES: 0 DROPPED PREFETCHES: 0
ITLB PREFETCHES SAME FILL-ORIGIN LEVEL: 0 DIFFERENT FILL-ORIGIN LEVEL: 0
ITLB AVERAGE MISS LATENCY: -nan cycles
ITLB RQ	ACCESS:    4791805	FORWARD:          0	MERGED:     353715	TO_CACHE:    4438090

DTLB TOTAL     ACCESS:    3715355  HIT:    3052445  MISS:     662910  HIT %:    82.1576  MISS %:    17.8424   MPKI: 26.5164
DTLB LOAD TRANSLATION ACCESS:    3715355  HIT:    3052445  MISS:     662910  HIT %:    82.1576  MISS %:    17.8424   MPKI: 26.5164
DTLB PREFETCH  REQUESTED:          0  ISSUED:          0  USEFUL:          0  USELESS:          0
DTLB USEFUL LOAD PREFETCHES:          0 PREFETCH ISSUED TO LOWER LEVEL:          0  ACCURACY: -nan
DTLB TIMELY PREFETCHES:          0 LATE PREFETCHES: 0 DROPPED PREFETCHES: 0
DTLB PREFETCHES SAME FILL-ORIGIN LEVEL: 0 DIFFERENT FILL-ORIGIN LEVEL: 0
DTLB AVERAGE MISS LATENCY: 54.2907 cycles
DTLB RQ	ACCESS:    4315197	FORWARD:          0	MERGED:     591312	TO_CACHE:    3723885

STLB TOTAL     ACCESS:     664272  HIT:     102244  MISS:     562028  HIT %:    15.3919  MISS %:    84.6081   MPKI: 22.4811
STLB LOAD TRANSLATION ACCESS:     662910  HIT:     100886  MISS:     562024  HIT %:    15.2187  MISS %:    84.7813   MPKI: 22.481
STLB TRANSLATION FROM L1D PREFETCHER ACCESS:       1362  HIT:       1358  MISS:          4  HIT %:    99.7063  MISS %:   0.293686   MPKI: 0.00016
STLB PREFETCH  REQUESTED:          0  ISSUED:          0  USEFUL:          2  USELESS:          2
STLB USEFUL LOAD PREFETCHES:          2 PREFETCH ISSUED TO LOWER LEVEL:          0  ACCURACY: inf
STLB TIMELY PREFETCHES:          2 LATE PREFETCHES: 0 DROPPED PREFETCHES: 0
STLB PREFETCHES SAME FILL-ORIGIN LEVEL: 0 DIFFERENT FILL-ORIGIN LEVEL: 0
STLB AVERAGE MISS LATENCY: 53.2718 cycles
STLB RQ	ACCESS:     664501	FORWARD:          0	MERGED:        226	TO_CACHE:     664275

STLB Hit, L1D data hit: 0
STLB Hit, L2C data hit: 0
STLB Hit, LLC data hit: 0
STLB Hit, LLC data miss: 0
STLB STLB hints to L2: 0
L1D TOTAL     ACCESS:    4297153  HIT:    3090915  MISS:    1206238  HIT %:    71.9294  MISS %:    28.0706   MPKI: 48.2495
L1D LOAD      ACCESS:    3187000  HIT:    2051433  MISS:    1135567  HIT %:    64.3688  MISS %:    35.6312   MPKI: 45.4227
L1D RFO       ACCESS:    1108664  HIT:    1039301  MISS:      69363  HIT %:    93.7436  MISS %:    6.25645   MPKI: 2.77452
L1D PREFETCH  ACCESS:       1489  HIT:        181  MISS:       1308  HIT %:    12.1558  MISS %:    87.8442   MPKI: 0.05232
AGUS PREFETCH L1 MISS: 0
L1D PREFETCH  REQUESTED:       3214  ISSUED:       3214  USEFUL:        320  USELESS:        985
L1D USEFUL LOAD PREFETCHES:        320 PREFETCH ISSUED TO LOWER LEVEL:       1333  ACCURACY: 24.006
L1D TIMELY PREFETCHES:        320 LATE PREFETCHES: 25 DROPPED PREFETCHES: 0
L1D PREFETCHES SAME FILL-ORIGIN LEVEL: 1333 DIFFERENT FILL-ORIGIN LEVEL: 0
L1D AVERAGE MISS LATENCY: 124.615 cycles
L1D RQ	ACCESS:    6162540	FORWARD:          0	MERGED:    2890483	TO_CACHE:    3206531
L1D WQ	ACCESS:    1108674	FORWARD:      65526	MERGED:          8	TO_CACHE:    1108666
L1D PQ	ACCESS:       1626	FORWARD:          0	MERGED:         38	TO_CACHE:       1588

L1D UNIQUE REGIONS ACCESSED: 0
L1D REGIONS CONFLICTS: 0
L1D Cross Page Prefetch Requests: 0
L1D Same Page Prefetch Requests: 5217
L1D ROI Sum of L1D PQ occupancy: 20791
L1D PREFETCHES PUSHED FROM L2C: 0
L1I TOTAL     ACCESS:    4791803  HIT:    4791803  MISS:          0  HIT %:        100  MISS %:          0   MPKI: 0
L1I LOAD      ACCESS:    4791803  HIT:    4791803  MISS:          0  HIT %:        100  MISS %:          0   MPKI: 0
L1I PREFETCH  REQUESTED:          0  ISSUED:          0  USEFUL:          0  USELESS:          0
L1I USEFUL LOAD PREFETCHES:          0 PREFETCH ISSUED TO LOWER LEVEL:          0  ACCURACY: -nan
L1I TIMELY PREFETCHES:          0 LATE PREFETCHES: 0 DROPPED PREFETCHES: 0
L1I PREFETCHES SAME FILL-ORIGIN LEVEL: 0 DIFFERENT FILL-ORIGIN LEVEL: 0
L1I AVERAGE MISS LATENCY: -nan cycles
L1I RQ	ACCESS:    7099161	FORWARD:          0	MERGED:    2307356	TO_CACHE:    4791805

BTB TOTAL     ACCESS:    3283965  HIT:    3283957  MISS:          8  HIT %:    99.9998  MISS %: 0.000243608   MPKI: 0.00032
BTB BRANCH_DIRECT_JUMP	ACCESS:     568311  HIT:     568309  MISS:          2
BTB BRANCH_INDIRECT	ACCESS:          0  HIT:          0  MISS:          0
BTB BRANCH_CONDITIONAL	ACCESS:    1606986  HIT:    1606982  MISS:          4
BTB BRANCH_DIRECT_CALL	ACCESS:     554334  HIT:     554333  MISS:          1
BTB BRANCH_INDIRECT_CALL	ACCESS:          0  HIT:          0  MISS:          0
BTB BRANCH_RETURN	ACCESS:     554334  HIT:     554333  MISS:          1
BTB BRANCH_OTHER ACCESS:          0  HIT:          0  MISS:          0

L2C TOTAL     ACCESS:    2399456  HIT:    1414732  MISS:     984724  HIT %:    58.9605  MISS %:    41.0395   MPKI: 39.389
L2C LOAD      ACCESS:    1135542  HIT:     417284  MISS:     718258  HIT %:    36.7476  MISS %:    63.2524   MPKI: 28.7303
L2C DATA LOAD MPKI: 28.7303
L2C INSTRUCTION LOAD MPKI: 0
L2C RFO       ACCESS:      69363  HIT:      42303  MISS:      27060  HIT %:    60.9878  MISS %:    39.0122   MPKI: 1.0824
L2C PREFETCH  ACCESS:       1333  HIT:        310  MISS:       1023  HIT %:    23.2558  MISS %:    76.7442   MPKI: 0.04092
AGUS PREFETCH L1 MISS: 0
L2C DATA PREFETCH MPKI: 0.04092
L2C INSTRUCTION PREFETCH MPKI: 0
L2C WRITEBACK ACCESS:     554350  HIT:     554350  MISS:          0  HIT %:        100  MISS %:          0   MPKI: 0
L2C LOAD TRANSLATION ACCESS:     638861  HIT:     400478  MISS:     238383  HIT %:    62.6862  MISS %:    37.3138   MPKI: 9.53532
L2C TRANSLATION FROM L1D PREFETCHER ACCESS:          7  HIT:          7  MISS:          0  HIT %:        100  MISS %:          0   MPKI: 0
L2C PREFETCH  REQUESTED:          0  ISSUED:          0  USEFUL:          4  USELESS:       1003
L2C USEFUL LOAD PREFETCHES:          4 PREFETCH ISSUED TO LOWER LEVEL:       1023  ACCURACY: 0.391007
L2C TIMELY PREFETCHES:          4 LATE PREFETCHES: 0 DROPPED PREFETCHES: 0
L2C PREFETCHES SAME FILL-ORIGIN LEVEL: 0 DIFFERENT FILL-ORIGIN LEVEL: 0
L2C AVERAGE MISS LATENCY: 142.668 cycles
L2C RQ	ACCESS:    1843774	FORWARD:          0	MERGED:          0	TO_CACHE:    1843774
L2C WQ	ACCESS:     554350	FORWARD:          0	MERGED:          0	TO_CACHE:     554350
L2C PQ	ACCESS:       1333	FORWARD:          0	MERGED:          0	TO_CACHE:       1333

L2C Instructions Evicting Data 0
L2C Translations Evicting Data 142672
L2C Data Evicting Data 603594
L2C Instructions Evicting Instructions 0
L2C Translations Evicting Instructions 0
L2C Data Evicting Instructions 0
L2C Instructions Evicting Translations 0
L2C Translations Evicting Translations 95711
L2C Data Evicting Translations 142747
L2C Dense regions hint from L2: 0
PSCL5 TOTAL     ACCESS:     562029  HIT:     562029  MISS:          0  HIT %:        100  MISS %:          0   MPKI: 0
PSCL5 LOAD TRANSLATION ACCESS:     562025  HIT:     562025  MISS:          0  HIT %:        100  MISS %:          0   MPKI: 0
PSCL5 TRANSLATION FROM L1D PREFETCHER ACCESS:          4  HIT:          4  MISS:          0  HIT %:        100  MISS %:          0   MPKI: 0
PSCL5 PREFETCH  REQUESTED:          0  ISSUED:          0  USEFUL:          0  USELESS:          0
PSCL5 USEFUL LOAD PREFETCHES:          0 PREFETCH ISSUED TO LOWER LEVEL:          0  ACCURACY: -nan
PSCL5 TIMELY PREFETCHES:          0 LATE PREFETCHES: 0 DROPPED PREFETCHES: 0
PSCL5 PREFETCHES SAME FILL-ORIGIN LEVEL: 0 DIFFERENT FILL-ORIGIN LEVEL: 0

PSCL4 TOTAL     ACCESS:     562029  HIT:     562029  MISS:          0  HIT %:        100  MISS %:          0   MPKI: 0
PSCL4 LOAD TRANSLATION ACCESS:     562025  HIT:     562025  MISS:          0  HIT %:        100  MISS %:          0   MPKI: 0
PSCL4 TRANSLATION FROM L1D PREFETCHER ACCESS:          4  HIT:          4  MISS:          0  HIT %:        100  MISS %:          0   MPKI: 0
PSCL4 PREFETCH  REQUESTED:          0  ISSUED:          0  USEFUL:          0  USELESS:          0
PSCL4 USEFUL LOAD PREFETCHES:          0 PREFETCH ISSUED TO LOWER LEVEL:          0  ACCURACY: -nan
PSCL4 TIMELY PREFETCHES:          0 LATE PREFETCHES: 0 DROPPED PREFETCHES: 0
PSCL4 PREFETCHES SAME FILL-ORIGIN LEVEL: 0 DIFFERENT FILL-ORIGIN LEVEL: 0

PSCL3 TOTAL     ACCESS:     562029  HIT:     562029  MISS:          0  HIT %:        100  MISS %:          0   MPKI: 0
PSCL3 LOAD TRANSLATION ACCESS:     562025  HIT:     562025  MISS:          0  HIT %:        100  MISS %:          0   MPKI: 0
PSCL3 TRANSLATION FROM L1D PREFETCHER ACCESS:          4  HIT:          4  MISS:          0  HIT %:        100  MISS %:          0   MPKI: 0
PSCL3 PREFETCH  REQUESTED:          0  ISSUED:          0  USEFUL:          0  USELESS:          0
PSCL3 USEFUL LOAD PREFETCHES:          0 PREFETCH ISSUED TO LOWER LEVEL:          0  ACCURACY: -nan
PSCL3 TIMELY PREFETCHES:          0 LATE PREFETCHES: 0 DROPPED PREFETCHES: 0
PSCL3 PREFETCHES SAME FILL-ORIGIN LEVEL: 0 DIFFERENT FILL-ORIGIN LEVEL: 0

PSCL2 TOTAL     ACCESS:     562029  HIT:     485189  MISS:      76840  HIT %:    86.3281  MISS %:    13.6719   MPKI: 3.0736
PSCL2 LOAD TRANSLATION ACCESS:     562028  HIT:     485188  MISS:      76840  HIT %:    86.3281  MISS %:    13.6719   MPKI: 3.0736
PSCL2 TRANSLATION FROM L1D PREFETCHER ACCESS:          1  HIT:          1  MISS:          0  HIT %:        100  MISS %:          0   MPKI: 0
PSCL2 PREFETCH  REQUESTED:          0  ISSUED:          0  USEFUL:          0  USELESS:          0
PSCL2 USEFUL LOAD PREFETCHES:          0 PREFETCH ISSUED TO LOWER LEVEL:          0  ACCURACY: -nan
PSCL2 TIMELY PREFETCHES:          0 LATE PREFETCHES: 0 DROPPED PREFETCHES: 0
PSCL2 PREFETCHES SAME FILL-ORIGIN LEVEL: 0 DIFFERENT FILL-ORIGIN LEVEL: 0

LLC TOTAL     ACCESS:    1539516  HIT:     889100  MISS:     650416  HIT %:    57.7519  MISS %:    42.2481   MPKI: 26.0166
LLC LOAD      ACCESS:     718258  HIT:      76812  MISS:     641446  HIT %:    10.6942  MISS %:    89.3058   MPKI: 25.6578
LLC RFO       ACCESS:      27060  HIT:      27056  MISS:          4  HIT %:    99.9852  MISS %:   0.014782   MPKI: 0.00016
LLC PREFETCH  ACCESS:       1023  HIT:        456  MISS:        567  HIT %:    44.5748  MISS %:    55.4252   MPKI: 0.02268
AGUS PREFETCH L1 MISS: 0
LLC WRITEBACK ACCESS:     554792  HIT:     554792  MISS:          0  HIT %:        100  MISS %:          0   MPKI: 0
LLC LOAD TRANSLATION ACCESS:     238383  HIT:     229984  MISS:       8399  HIT %:    96.4767  MISS %:    3.52332   MPKI: 0.33596
LLC PREFETCH  REQUESTED:          0  ISSUED:          0  USEFUL:         24  USELESS:        491
LLC USEFUL LOAD PREFETCHES:         24 PREFETCH ISSUED TO LOWER LEVEL:        567  ACCURACY: 4.2328
LLC TIMELY PREFETCHES:         24 LATE PREFETCHES: 0 DROPPED PREFETCHES: 0
LLC PREFETCHES SAME FILL-ORIGIN LEVEL: 0 DIFFERENT FILL-ORIGIN LEVEL: 0
LLC AVERAGE MISS LATENCY: 170.394 cycles
LLC RQ	ACCESS:     983702	FORWARD:          0	MERGED:          0	TO_CACHE:     983702
LLC WQ	ACCESS:     554792	FORWARD:          0	MERGED:          0	TO_CACHE:     554792
LLC PQ	ACCESS:       1023	FORWARD:          0	MERGED:          0	TO_CACHE:       1023

LLC Dense regions hint to LLC: 0

RAW hits: 487997
Loads Generated: 6650540
Loads sent to L1D: 6162540
Stores Generated: 1108674
Stores sent to L1D: 1108674
Major fault: 0 Minor fault: 23115
Allocated PAGES: 23115
CPU 0 L1D complex stride prefetcher final stats
Degree: 5

DRAM Statistics
 CHANNEL 0
 RQ ROW_BUFFER_HIT:        772  ROW_BUFFER_MISS:     649644
 DBUS_CONGESTED:          6
 WQ ROW_BUFFER_HIT:     200637  ROW_BUFFER_MISS:     353838  FULL:          0

 AVG_CONGESTED_CYCLE: 4
 All warmup complete: 2
Channel 0 Bank busy for read cycles: 0
Channel 0 Bank busy for write cycles: 0
Channel 0
Rank 0
0banks busy for read cycles: 2806480
0banks busy for write cycles: 64796
1banks busy for read cycles: 20643224
1banks busy for write cycles: 4943779
2banks busy for read cycles: 14359233
2banks busy for write cycles: 7129831
3banks busy for read cycles: 11273480
3banks busy for write cycles: 10270043
4banks busy for read cycles: 3558953
4banks busy for write cycles: 8204593
5banks busy for read cycles: 13361
5banks busy for write cycles: 2992172
6banks busy for read cycles: 100
6banks busy for write cycles: 1148325
7banks busy for read cycles: 0
7banks busy for write cycles: 559598
8banks busy for read cycles: 0
8banks busy for write cycles: 456799

CPU 0 Branch Prediction Accuracy: 99.9685% MPKI: 0.04912 Average ROB Occupancy at Mispredict: 155.887
Branch types
NOT_BRANCH: 21105652 84.4226%
BRANCH_DIRECT_JUMP: 568311 2.27324%
BRANCH_INDIRECT: 0 0%
BRANCH_CONDITIONAL: 2217337 8.86935%
BRANCH_DIRECT_CALL: 554334 2.21734%
BRANCH_INDIRECT_CALL: 0 0%
BRANCH_RETURN: 554334 2.21734%
BRANCH_OTHER: 0 0%

DRAM PAGES: 1048576
Allocated PAGES: 23115
