
*** ChampSim Multicore Out-of-Order Simulator ***

Warmup Instructions: 25000000
Simulation Instructions: 25000000
Number of CPUs: 1
LLC sets: 2048
LLC ways: 16
Off-chip DRAM Size: 4096 MB Channels: 1 Width: 64-bit Data Rate: 6400 MT/s
CPU 0 runs /home/yashas/CS683/pa2-lehra-do-prefetcher-wronganswersonly/traces/trace1.champsimtrace.xz
.xz
CPU 0 Bimodal branch predictor
BTB has LRU replacement policy
ITLB has LRU replacement policy
DTLB has LRU replacement policy
STLB has LRU replacement policy
L1I has LRU replacement policy
CPU 0 L1D Optimized prefetcher
L1D has LRU replacement policy
L2C has LRU replacement policy
LLC has LRU replacement policy
Heartbeat CPU 0 instructions: 10000003 cycles: 2830061 heartbeat IPC: 3.53349 cumulative IPC: 3.53349 (Simulation time: 0 hr 0 min 15 sec) 
Heartbeat CPU 0 instructions: 20000003 cycles: 5650207 heartbeat IPC: 3.54592 cumulative IPC: 3.53969 (Simulation time: 0 hr 0 min 30 sec) 

Warmup complete CPU 0 instructions: 25000004 cycles: 7064357 (Simulation time: 0 hr 0 min 38 sec) 

Heartbeat CPU 0 instructions: 30000002 cycles: 23995873 heartbeat IPC: 0.545088 cumulative IPC: 0.295307 (Simulation time: 0 hr 0 min 58 sec) 
Heartbeat CPU 0 instructions: 40000001 cycles: 60337224 heartbeat IPC: 0.275169 cumulative IPC: 0.281569 (Simulation time: 0 hr 1 min 42 sec) 
IP_STRIDE Accuracy is 11.9571 
Switching to CPLX L1D prefetcher
Heartbeat CPU 0 instructions: 50000000 cycles: 95506726 heartbeat IPC: 0.284337 cumulative IPC: 0.28267 (Simulation time: 0 hr 2 min 24 sec) 
Finished CPU 0 instructions: 25000000 cycles: 88442371 cumulative IPC: 0.28267 (Simulation time: 0 hr 2 min 24 sec) 

ChampSim completed all CPUs

Region of Interest Statistics

CPU 0 cumulative IPC: 0.28267 instructions: 25000000 cycles: 88442371
ITLB TOTAL     ACCESS:    4438112  HIT:    4438112  MISS:          0  HIT %:        100  MISS %:          0   MPKI: 0
ITLB LOAD TRANSLATION ACCESS:    4438112  HIT:    4438112  MISS:          0  HIT %:        100  MISS %:          0   MPKI: 0
ITLB PREFETCH  REQUESTED:          0  ISSUED:          0  USEFUL:          0  USELESS:          0
ITLB USEFUL LOAD PREFETCHES:          0 PREFETCH ISSUED TO LOWER LEVEL:          0  ACCURACY: -nan
ITLB TIMELY PREFETCHES:          0 LATE PREFETCHES: 0 DROPPED PREFETCHES: 0
ITLB PREFETCHES SAME FILL-ORIGIN LEVEL: 0 DIFFERENT FILL-ORIGIN LEVEL: 0
ITLB AVERAGE MISS LATENCY: -nan cycles
ITLB RQ	ACCESS:    4791838	FORWARD:          0	MERGED:     353726	TO_CACHE:    4438112

DTLB TOTAL     ACCESS:    3715460  HIT:    3052550  MISS:     662910  HIT %:    82.1581  MISS %:    17.8419   MPKI: 26.5164
DTLB LOAD TRANSLATION ACCESS:    3715460  HIT:    3052550  MISS:     662910  HIT %:    82.1581  MISS %:    17.8419   MPKI: 26.5164
DTLB PREFETCH  REQUESTED:          0  ISSUED:          0  USEFUL:          0  USELESS:          0
DTLB USEFUL LOAD PREFETCHES:          0 PREFETCH ISSUED TO LOWER LEVEL:          0  ACCURACY: -nan
DTLB TIMELY PREFETCHES:          0 LATE PREFETCHES: 0 DROPPED PREFETCHES: 0
DTLB PREFETCHES SAME FILL-ORIGIN LEVEL: 0 DIFFERENT FILL-ORIGIN LEVEL: 0
DTLB AVERAGE MISS LATENCY: 54.3154 cycles
DTLB RQ	ACCESS:    4315295	FORWARD:          0	MERGED:     591315	TO_CACHE:    3723980

STLB TOTAL     ACCESS:     664086  HIT:     102059  MISS:     562027  HIT %:    15.3683  MISS %:    84.6317   MPKI: 22.4811
STLB LOAD TRANSLATION ACCESS:     662910  HIT:     100883  MISS:     562027  HIT %:    15.2182  MISS %:    84.7818   MPKI: 22.4811
STLB TRANSLATION FROM L1D PREFETCHER ACCESS:       1176  HIT:       1176  MISS:          0  HIT %:        100  MISS %:          0   MPKI: 0
STLB PREFETCH  REQUESTED:          0  ISSUED:          0  USEFUL:          0  USELESS:          0
STLB USEFUL LOAD PREFETCHES:          0 PREFETCH ISSUED TO LOWER LEVEL:          0  ACCURACY: -nan
STLB TIMELY PREFETCHES:          0 LATE PREFETCHES: 0 DROPPED PREFETCHES: 0
STLB PREFETCHES SAME FILL-ORIGIN LEVEL: 0 DIFFERENT FILL-ORIGIN LEVEL: 0
STLB AVERAGE MISS LATENCY: 53.3009 cycles
STLB RQ	ACCESS:     666014	FORWARD:          0	MERGED:       1925	TO_CACHE:     664089

STLB Hit, L1D data hit: 0
STLB Hit, L2C data hit: 0
STLB Hit, LLC data hit: 0
STLB Hit, LLC data miss: 0
STLB STLB hints to L2: 0
L1D TOTAL     ACCESS:    4298765  HIT:    3090264  MISS:    1208501  HIT %:    71.8873  MISS %:    28.1127   MPKI: 48.34
L1D LOAD      ACCESS:    3187068  HIT:    2050659  MISS:    1136409  HIT %:    64.3431  MISS %:    35.6569   MPKI: 45.4564
L1D RFO       ACCESS:    1108664  HIT:    1039300  MISS:      69364  HIT %:    93.7435  MISS %:    6.25654   MPKI: 2.77456
L1D PREFETCH  ACCESS:       3033  HIT:        305  MISS:       2728  HIT %:    10.0561  MISS %:    89.9439   MPKI: 0.10912
AGUS PREFETCH L1 MISS: 0
L1D PREFETCH  REQUESTED:       6216  ISSUED:       6216  USEFUL:        331  USELESS:       2393
L1D USEFUL LOAD PREFETCHES:        331 PREFETCH ISSUED TO LOWER LEVEL:       2753  ACCURACY: 12.0232
L1D TIMELY PREFETCHES:        331 LATE PREFETCHES: 25 DROPPED PREFETCHES: 0
L1D PREFETCHES SAME FILL-ORIGIN LEVEL: 2753 DIFFERENT FILL-ORIGIN LEVEL: 0
L1D AVERAGE MISS LATENCY: 124.418 cycles
L1D RQ	ACCESS:    6162500	FORWARD:          0	MERGED:    2890385	TO_CACHE:    3206629
L1D WQ	ACCESS:    1108674	FORWARD:      65486	MERGED:          8	TO_CACHE:    1108666
L1D PQ	ACCESS:       3115	FORWARD:          0	MERGED:         14	TO_CACHE:       3101

L1D UNIQUE REGIONS ACCESSED: 0
L1D REGIONS CONFLICTS: 0
L1D Cross Page Prefetch Requests: 0
L1D Same Page Prefetch Requests: 3115
L1D ROI Sum of L1D PQ occupancy: 42145
L1D PREFETCHES PUSHED FROM L2C: 0
L1I TOTAL     ACCESS:    4791836  HIT:    4791836  MISS:          0  HIT %:        100  MISS %:          0   MPKI: 0
L1I LOAD      ACCESS:    4791836  HIT:    4791836  MISS:          0  HIT %:        100  MISS %:          0   MPKI: 0
L1I PREFETCH  REQUESTED:          0  ISSUED:          0  USEFUL:          0  USELESS:          0
L1I USEFUL LOAD PREFETCHES:          0 PREFETCH ISSUED TO LOWER LEVEL:          0  ACCURACY: -nan
L1I TIMELY PREFETCHES:          0 LATE PREFETCHES: 0 DROPPED PREFETCHES: 0
L1I PREFETCHES SAME FILL-ORIGIN LEVEL: 0 DIFFERENT FILL-ORIGIN LEVEL: 0
L1I AVERAGE MISS LATENCY: -nan cycles
L1I RQ	ACCESS:    7099393	FORWARD:          0	MERGED:    2307555	TO_CACHE:    4791838

BTB TOTAL     ACCESS:    3283965  HIT:    3283957  MISS:          8  HIT %:    99.9998  MISS %: 0.000243608   MPKI: 0.00032
BTB BRANCH_DIRECT_JUMP	ACCESS:     568311  HIT:     568309  MISS:          2
BTB BRANCH_INDIRECT	ACCESS:          0  HIT:          0  MISS:          0
BTB BRANCH_CONDITIONAL	ACCESS:    1606986  HIT:    1606982  MISS:          4
BTB BRANCH_DIRECT_CALL	ACCESS:     554334  HIT:     554333  MISS:          1
BTB BRANCH_INDIRECT_CALL	ACCESS:          0  HIT:          0  MISS:          0
BTB BRANCH_RETURN	ACCESS:     554334  HIT:     554333  MISS:          1
BTB BRANCH_OTHER ACCESS:          0  HIT:          0  MISS:          0

L2C TOTAL     ACCESS:    2401720  HIT:    1416497  MISS:     985223  HIT %:    58.9784  MISS %:    41.0216   MPKI: 39.4089
L2C LOAD      ACCESS:    1136384  HIT:     418010  MISS:     718374  HIT %:    36.7842  MISS %:    63.2158   MPKI: 28.735
L2C DATA LOAD MPKI: 28.735
L2C INSTRUCTION LOAD MPKI: 0
L2C RFO       ACCESS:      69364  HIT:      42262  MISS:      27102  HIT %:    60.9279  MISS %:    39.0721   MPKI: 1.08408
L2C PREFETCH  ACCESS:       2753  HIT:       1640  MISS:       1113  HIT %:    59.5714  MISS %:    40.4286   MPKI: 0.04452
AGUS PREFETCH L1 MISS: 0
L2C DATA PREFETCH MPKI: 0.04452
L2C INSTRUCTION PREFETCH MPKI: 0
L2C WRITEBACK ACCESS:     554352  HIT:     554352  MISS:          0  HIT %:        100  MISS %:          0   MPKI: 0
L2C LOAD TRANSLATION ACCESS:     638867  HIT:     400233  MISS:     238634  HIT %:    62.6473  MISS %:    37.3527   MPKI: 9.54536
L2C PREFETCH  REQUESTED:          0  ISSUED:          0  USEFUL:         11  USELESS:       1085
L2C USEFUL LOAD PREFETCHES:         11 PREFETCH ISSUED TO LOWER LEVEL:       1113  ACCURACY: 0.98832
L2C TIMELY PREFETCHES:         11 LATE PREFETCHES: 0 DROPPED PREFETCHES: 0
L2C PREFETCHES SAME FILL-ORIGIN LEVEL: 0 DIFFERENT FILL-ORIGIN LEVEL: 0
L2C AVERAGE MISS LATENCY: 142.612 cycles
L2C RQ	ACCESS:    1844616	FORWARD:          0	MERGED:          0	TO_CACHE:    1844616
L2C WQ	ACCESS:     554352	FORWARD:          0	MERGED:          0	TO_CACHE:     554352
L2C PQ	ACCESS:       2753	FORWARD:          0	MERGED:          0	TO_CACHE:       2753

L2C Instructions Evicting Data 0
L2C Translations Evicting Data 142836
L2C Data Evicting Data 603676
L2C Instructions Evicting Instructions 0
L2C Translations Evicting Instructions 0
L2C Data Evicting Instructions 0
L2C Instructions Evicting Translations 0
L2C Translations Evicting Translations 95798
L2C Data Evicting Translations 142913
L2C Dense regions hint from L2: 0
PSCL5 TOTAL     ACCESS:     562028  HIT:     562028  MISS:          0  HIT %:        100  MISS %:          0   MPKI: 0
PSCL5 LOAD TRANSLATION ACCESS:     562028  HIT:     562028  MISS:          0  HIT %:        100  MISS %:          0   MPKI: 0
PSCL5 PREFETCH  REQUESTED:          0  ISSUED:          0  USEFUL:          0  USELESS:          0
PSCL5 USEFUL LOAD PREFETCHES:          0 PREFETCH ISSUED TO LOWER LEVEL:          0  ACCURACY: -nan
PSCL5 TIMELY PREFETCHES:          0 LATE PREFETCHES: 0 DROPPED PREFETCHES: 0
PSCL5 PREFETCHES SAME FILL-ORIGIN LEVEL: 0 DIFFERENT FILL-ORIGIN LEVEL: 0

PSCL4 TOTAL     ACCESS:     562028  HIT:     562028  MISS:          0  HIT %:        100  MISS %:          0   MPKI: 0
PSCL4 LOAD TRANSLATION ACCESS:     562028  HIT:     562028  MISS:          0  HIT %:        100  MISS %:          0   MPKI: 0
PSCL4 PREFETCH  REQUESTED:          0  ISSUED:          0  USEFUL:          0  USELESS:          0
PSCL4 USEFUL LOAD PREFETCHES:          0 PREFETCH ISSUED TO LOWER LEVEL:          0  ACCURACY: -nan
PSCL4 TIMELY PREFETCHES:          0 LATE PREFETCHES: 0 DROPPED PREFETCHES: 0
PSCL4 PREFETCHES SAME FILL-ORIGIN LEVEL: 0 DIFFERENT FILL-ORIGIN LEVEL: 0

PSCL3 TOTAL     ACCESS:     562028  HIT:     562028  MISS:          0  HIT %:        100  MISS %:          0   MPKI: 0
PSCL3 LOAD TRANSLATION ACCESS:     562028  HIT:     562028  MISS:          0  HIT %:        100  MISS %:          0   MPKI: 0
PSCL3 PREFETCH  REQUESTED:          0  ISSUED:          0  USEFUL:          0  USELESS:          0
PSCL3 USEFUL LOAD PREFETCHES:          0 PREFETCH ISSUED TO LOWER LEVEL:          0  ACCURACY: -nan
PSCL3 TIMELY PREFETCHES:          0 LATE PREFETCHES: 0 DROPPED PREFETCHES: 0
PSCL3 PREFETCHES SAME FILL-ORIGIN LEVEL: 0 DIFFERENT FILL-ORIGIN LEVEL: 0

PSCL2 TOTAL     ACCESS:     562028  HIT:     485188  MISS:      76840  HIT %:    86.3281  MISS %:    13.6719   MPKI: 3.0736
PSCL2 LOAD TRANSLATION ACCESS:     562028  HIT:     485188  MISS:      76840  HIT %:    86.3281  MISS %:    13.6719   MPKI: 3.0736
PSCL2 PREFETCH  REQUESTED:          0  ISSUED:          0  USEFUL:          0  USELESS:          0
PSCL2 USEFUL LOAD PREFETCHES:          0 PREFETCH ISSUED TO LOWER LEVEL:          0  ACCURACY: -nan
PSCL2 TIMELY PREFETCHES:          0 LATE PREFETCHES: 0 DROPPED PREFETCHES: 0
PSCL2 PREFETCHES SAME FILL-ORIGIN LEVEL: 0 DIFFERENT FILL-ORIGIN LEVEL: 0

LLC TOTAL     ACCESS:    1540014  HIT:     889636  MISS:     650378  HIT %:     57.768  MISS %:     42.232   MPKI: 26.0151
LLC LOAD      ACCESS:     718374  HIT:      76922  MISS:     641452  HIT %:    10.7078  MISS %:    89.2922   MPKI: 25.6581
LLC RFO       ACCESS:      27102  HIT:      27098  MISS:          4  HIT %:    99.9852  MISS %:  0.0147591   MPKI: 0.00016
LLC PREFETCH  ACCESS:       1113  HIT:        593  MISS:        520  HIT %:    53.2794  MISS %:    46.7206   MPKI: 0.0208
AGUS PREFETCH L1 MISS: 0
LLC WRITEBACK ACCESS:     554791  HIT:     554791  MISS:          0  HIT %:        100  MISS %:          0   MPKI: 0
LLC LOAD TRANSLATION ACCESS:     238634  HIT:     230232  MISS:       8402  HIT %:    96.4791  MISS %:    3.52087   MPKI: 0.33608
LLC PREFETCH  REQUESTED:          0  ISSUED:          0  USEFUL:         16  USELESS:        451
LLC USEFUL LOAD PREFETCHES:         16 PREFETCH ISSUED TO LOWER LEVEL:        520  ACCURACY: 3.07692
LLC TIMELY PREFETCHES:         16 LATE PREFETCHES: 0 DROPPED PREFETCHES: 0
LLC PREFETCHES SAME FILL-ORIGIN LEVEL: 0 DIFFERENT FILL-ORIGIN LEVEL: 0
LLC AVERAGE MISS LATENCY: 170.405 cycles
LLC RQ	ACCESS:     984111	FORWARD:          0	MERGED:          0	TO_CACHE:     984111
LLC WQ	ACCESS:     554791	FORWARD:          0	MERGED:          0	TO_CACHE:     554791
LLC PQ	ACCESS:       1113	FORWARD:          0	MERGED:          0	TO_CACHE:       1113

LLC Dense regions hint to LLC: 0

RAW hits: 488037
Loads Generated: 6650540
Loads sent to L1D: 6162500
Stores Generated: 1108674
Stores sent to L1D: 1108674
Major fault: 0 Minor fault: 23115
Allocated PAGES: 23115
CPU 0 L1D optimized prefetcher final stats
Degree: 5

DRAM Statistics
 CHANNEL 0
 RQ ROW_BUFFER_HIT:        747  ROW_BUFFER_MISS:     649629
 DBUS_CONGESTED:          5
 WQ ROW_BUFFER_HIT:     200399  ROW_BUFFER_MISS:     354073  FULL:          0

 AVG_CONGESTED_CYCLE: 5
 All warmup complete: 2
Channel 0 Bank busy for read cycles: 0
Channel 0 Bank busy for write cycles: 0
Channel 0
Rank 0
0banks busy for read cycles: 2815822
0banks busy for write cycles: 64975
1banks busy for read cycles: 20637334
1banks busy for write cycles: 4960745
2banks busy for read cycles: 14350584
2banks busy for write cycles: 7139771
3banks busy for read cycles: 11272634
3banks busy for write cycles: 10299677
4banks busy for read cycles: 3560829
4banks busy for write cycles: 8189039
5banks busy for read cycles: 14256
5banks busy for write cycles: 2975919
6banks busy for read cycles: 826
6banks busy for write cycles: 1145712
7banks busy for read cycles: 818
7banks busy for write cycles: 554795
8banks busy for read cycles: 24
8banks busy for write cycles: 458612

CPU 0 Branch Prediction Accuracy: 99.9685% MPKI: 0.04912 Average ROB Occupancy at Mispredict: 155.897
Branch types
NOT_BRANCH: 21105652 84.4226%
BRANCH_DIRECT_JUMP: 568311 2.27324%
BRANCH_INDIRECT: 0 0%
BRANCH_CONDITIONAL: 2217337 8.86935%
BRANCH_DIRECT_CALL: 554334 2.21734%
BRANCH_INDIRECT_CALL: 0 0%
BRANCH_RETURN: 554334 2.21734%
BRANCH_OTHER: 0 0%

DRAM PAGES: 1048576
Allocated PAGES: 23115
