
*** ChampSim Multicore Out-of-Order Simulator ***

Warmup Instructions: 25000000
Simulation Instructions: 25000000
Number of CPUs: 1
LLC sets: 2048
LLC ways: 16
Off-chip DRAM Size: 4096 MB Channels: 1 Width: 64-bit Data Rate: 6400 MT/s
CPU 0 runs /home/yashas/CS683/pa2-lehra-do-prefetcher-wronganswersonly/traces/trace3.champsimtrace.xz
.xz
CPU 0 Bimodal branch predictor
BTB has LRU replacement policy
ITLB has LRU replacement policy
DTLB has LRU replacement policy
STLB has LRU replacement policy
L1I has LRU replacement policy
CPU 0 L1D Complex-Stride prefetcher
L1D has LRU replacement policy
L2C has LRU replacement policy
LLC has LRU replacement policy
Heartbeat CPU 0 instructions: 10000001 cycles: 3770646 heartbeat IPC: 2.65207 cumulative IPC: 2.65207 (Simulation time: 0 hr 0 min 19 sec) 
Heartbeat CPU 0 instructions: 20000000 cycles: 7512995 heartbeat IPC: 2.67212 cumulative IPC: 2.66205 (Simulation time: 0 hr 0 min 39 sec) 

Warmup complete CPU 0 instructions: 25000004 cycles: 9415105 (Simulation time: 0 hr 0 min 48 sec) 

Heartbeat CPU 0 instructions: 30000001 cycles: 41739568 heartbeat IPC: 0.292171 cumulative IPC: 0.154682 (Simulation time: 0 hr 1 min 11 sec) 
Heartbeat CPU 0 instructions: 40000001 cycles: 106361443 heartbeat IPC: 0.154746 cumulative IPC: 0.154725 (Simulation time: 0 hr 1 min 56 sec) 
Heartbeat CPU 0 instructions: 50000000 cycles: 174233434 heartbeat IPC: 0.147336 cumulative IPC: 0.151682 (Simulation time: 0 hr 2 min 42 sec) 
Finished CPU 0 instructions: 25000000 cycles: 164818331 cumulative IPC: 0.151682 (Simulation time: 0 hr 2 min 42 sec) 

ChampSim completed all CPUs

Region of Interest Statistics

CPU 0 cumulative IPC: 0.151682 instructions: 25000000 cycles: 164818331
ITLB TOTAL     ACCESS:    4055811  HIT:    4055811  MISS:          0  HIT %:        100  MISS %:          0   MPKI: 0
ITLB LOAD TRANSLATION ACCESS:    4055811  HIT:    4055811  MISS:          0  HIT %:        100  MISS %:          0   MPKI: 0
ITLB PREFETCH  REQUESTED:          0  ISSUED:          0  USEFUL:          0  USELESS:          0
ITLB USEFUL LOAD PREFETCHES:          0 PREFETCH ISSUED TO LOWER LEVEL:          0  ACCURACY: -nan
ITLB TIMELY PREFETCHES:          0 LATE PREFETCHES: 0 DROPPED PREFETCHES: 0
ITLB PREFETCHES SAME FILL-ORIGIN LEVEL: 0 DIFFERENT FILL-ORIGIN LEVEL: 0
ITLB AVERAGE MISS LATENCY: -nan cycles
ITLB RQ	ACCESS:    4106940	FORWARD:          0	MERGED:      51130	TO_CACHE:    4055810

DTLB TOTAL     ACCESS:    5234400  HIT:    3030416  MISS:    2203984  HIT %:    57.8942  MISS %:    42.1058   MPKI: 88.1594
DTLB LOAD TRANSLATION ACCESS:    5234400  HIT:    3030416  MISS:    2203984  HIT %:    57.8942  MISS %:    42.1058   MPKI: 88.1594
DTLB PREFETCH  REQUESTED:          0  ISSUED:          0  USEFUL:          0  USELESS:          0
DTLB USEFUL LOAD PREFETCHES:          0 PREFETCH ISSUED TO LOWER LEVEL:          0  ACCURACY: -nan
DTLB TIMELY PREFETCHES:          0 LATE PREFETCHES: 0 DROPPED PREFETCHES: 0
DTLB PREFETCHES SAME FILL-ORIGIN LEVEL: 0 DIFFERENT FILL-ORIGIN LEVEL: 0
DTLB AVERAGE MISS LATENCY: 11.0585 cycles
DTLB RQ	ACCESS:    5764773	FORWARD:          0	MERGED:     495397	TO_CACHE:    5269376

STLB TOTAL     ACCESS:    2536140  HIT:    2507057  MISS:      29083  HIT %:    98.8533  MISS %:    1.14674   MPKI: 1.16332
STLB LOAD TRANSLATION ACCESS:    2203984  HIT:    2174901  MISS:      29083  HIT %:    98.6804  MISS %:    1.31956   MPKI: 1.16332
STLB TRANSLATION FROM L1D PREFETCHER ACCESS:     332156  HIT:     332156  MISS:          0  HIT %:        100  MISS %:          0   MPKI: 0
STLB PREFETCH  REQUESTED:          0  ISSUED:          0  USEFUL:          0  USELESS:          0
STLB USEFUL LOAD PREFETCHES:          0 PREFETCH ISSUED TO LOWER LEVEL:          0  ACCURACY: -nan
STLB TIMELY PREFETCHES:          0 LATE PREFETCHES: 0 DROPPED PREFETCHES: 0
STLB PREFETCHES SAME FILL-ORIGIN LEVEL: 0 DIFFERENT FILL-ORIGIN LEVEL: 0
STLB AVERAGE MISS LATENCY: 135.503 cycles
STLB RQ	ACCESS:    3827897	FORWARD:          0	MERGED:    1291757	TO_CACHE:    2536140

STLB Hit, L1D data hit: 0
STLB Hit, L2C data hit: 0
STLB Hit, LLC data hit: 0
STLB Hit, LLC data miss: 0
STLB STLB hints to L2: 0
L1D TOTAL     ACCESS:    6447306  HIT:    2273484  MISS:    4173822  HIT %:    35.2625  MISS %:    64.7375   MPKI: 166.953
L1D LOAD      ACCESS:    5190456  HIT:    1758732  MISS:    3431724  HIT %:     33.884  MISS %:     66.116   MPKI: 137.269
L1D RFO       ACCESS:     423876  HIT:     416016  MISS:       7860  HIT %:    98.1457  MISS %:    1.85432   MPKI: 0.3144
L1D PREFETCH  ACCESS:     832974  HIT:      98736  MISS:     734238  HIT %:    11.8534  MISS %:    88.1466   MPKI: 29.3695
AGUS PREFETCH L1 MISS: 0
L1D PREFETCH  REQUESTED:    3579123  ISSUED:    3578962  USEFUL:     447300  USELESS:     286930
L1D USEFUL LOAD PREFETCHES:     447300 PREFETCH ISSUED TO LOWER LEVEL:     957904  ACCURACY: 46.6957
L1D TIMELY PREFETCHES:     447300 LATE PREFETCHES: 223666 DROPPED PREFETCHES: 0
L1D PREFETCHES SAME FILL-ORIGIN LEVEL: 957904 DIFFERENT FILL-ORIGIN LEVEL: 0
L1D AVERAGE MISS LATENCY: 121.56 cycles
L1D RQ	ACCESS:    8951562	FORWARD:          0	MERGED:    3565098	TO_CACHE:    5321655
L1D WQ	ACCESS:     459661	FORWARD:      64811	MERGED:      16543	TO_CACHE:     443118
L1D PQ	ACCESS:    1955049	FORWARD:          0	MERGED:     331134	TO_CACHE:    1623913

L1D UNIQUE REGIONS ACCESSED: 0
L1D REGIONS CONFLICTS: 0
L1D Cross Page Prefetch Requests: 0
L1D Same Page Prefetch Requests: 4310301
L1D ROI Sum of L1D PQ occupancy: 24658469
L1D PREFETCHES PUSHED FROM L2C: 0
L1I TOTAL     ACCESS:    4106941  HIT:    4106941  MISS:          0  HIT %:        100  MISS %:          0   MPKI: 0
L1I LOAD      ACCESS:    4106941  HIT:    4106941  MISS:          0  HIT %:        100  MISS %:          0   MPKI: 0
L1I PREFETCH  REQUESTED:          0  ISSUED:          0  USEFUL:          0  USELESS:          0
L1I USEFUL LOAD PREFETCHES:          0 PREFETCH ISSUED TO LOWER LEVEL:          0  ACCURACY: -nan
L1I TIMELY PREFETCHES:          0 LATE PREFETCHES: 0 DROPPED PREFETCHES: 0
L1I PREFETCHES SAME FILL-ORIGIN LEVEL: 0 DIFFERENT FILL-ORIGIN LEVEL: 0
L1I AVERAGE MISS LATENCY: -nan cycles
L1I RQ	ACCESS:    5515852	FORWARD:          0	MERGED:    1408912	TO_CACHE:    4106940

BTB TOTAL     ACCESS:    7381233  HIT:    7359090  MISS:      22143  HIT %:       99.7  MISS %:   0.299991   MPKI: 0.88572
BTB BRANCH_DIRECT_JUMP	ACCESS:     954613  HIT:     954578  MISS:         35
BTB BRANCH_INDIRECT	ACCESS:          0  HIT:          0  MISS:          0
BTB BRANCH_CONDITIONAL	ACCESS:    6254608  HIT:    6254529  MISS:         79
BTB BRANCH_DIRECT_CALL	ACCESS:      79755  HIT:      79739  MISS:         16
BTB BRANCH_INDIRECT_CALL	ACCESS:       6250  HIT:       6242  MISS:          8
BTB BRANCH_RETURN	ACCESS:      86007  HIT:      64002  MISS:      22005
BTB BRANCH_OTHER ACCESS:          0  HIT:          0  MISS:          0

L2C TOTAL     ACCESS:    4282855  HIT:     504625  MISS:    3778230  HIT %:    11.7824  MISS %:    88.2176   MPKI: 151.129
L2C LOAD      ACCESS:    3208054  HIT:     383362  MISS:    2824692  HIT %:      11.95  MISS %:      88.05   MPKI: 112.988
L2C DATA LOAD MPKI: 112.988
L2C INSTRUCTION LOAD MPKI: 0
L2C RFO       ACCESS:       7860  HIT:        576  MISS:       7284  HIT %:    7.32824  MISS %:    92.6718   MPKI: 0.29136
L2C PREFETCH  ACCESS:     957904  HIT:      20811  MISS:     937093  HIT %:    2.17256  MISS %:    97.8274   MPKI: 37.4837
AGUS PREFETCH L1 MISS: 0
L2C DATA PREFETCH MPKI: 37.4837
L2C INSTRUCTION PREFETCH MPKI: 0
L2C WRITEBACK ACCESS:      79780  HIT:      79780  MISS:          0  HIT %:        100  MISS %:          0   MPKI: 0
L2C LOAD TRANSLATION ACCESS:      29257  HIT:      20096  MISS:       9161  HIT %:    68.6878  MISS %:    31.3122   MPKI: 0.36644
L2C PREFETCH  REQUESTED:          0  ISSUED:          0  USEFUL:      12577  USELESS:     924399
L2C USEFUL LOAD PREFETCHES:      12577 PREFETCH ISSUED TO LOWER LEVEL:     937093  ACCURACY: 1.34213
L2C TIMELY PREFETCHES:      12577 LATE PREFETCHES: 0 DROPPED PREFETCHES: 0
L2C PREFETCHES SAME FILL-ORIGIN LEVEL: 0 DIFFERENT FILL-ORIGIN LEVEL: 0
L2C AVERAGE MISS LATENCY: 117.605 cycles
L2C RQ	ACCESS:    3245175	FORWARD:          0	MERGED:          0	TO_CACHE:    3245171
L2C WQ	ACCESS:      79780	FORWARD:          4	MERGED:          0	TO_CACHE:      79780
L2C PQ	ACCESS:     957904	FORWARD:          0	MERGED:          0	TO_CACHE:     957904

L2C Instructions Evicting Data 0
L2C Translations Evicting Data 9142
L2C Data Evicting Data 3759945
L2C Instructions Evicting Instructions 0
L2C Translations Evicting Instructions 0
L2C Data Evicting Instructions 0
L2C Instructions Evicting Translations 0
L2C Translations Evicting Translations 19
L2C Data Evicting Translations 9124
L2C Dense regions hint from L2: 0
PSCL5 TOTAL     ACCESS:      29083  HIT:      29083  MISS:          0  HIT %:        100  MISS %:          0   MPKI: 0
PSCL5 LOAD TRANSLATION ACCESS:      29083  HIT:      29083  MISS:          0  HIT %:        100  MISS %:          0   MPKI: 0
PSCL5 PREFETCH  REQUESTED:          0  ISSUED:          0  USEFUL:          0  USELESS:          0
PSCL5 USEFUL LOAD PREFETCHES:          0 PREFETCH ISSUED TO LOWER LEVEL:          0  ACCURACY: -nan
PSCL5 TIMELY PREFETCHES:          0 LATE PREFETCHES: 0 DROPPED PREFETCHES: 0
PSCL5 PREFETCHES SAME FILL-ORIGIN LEVEL: 0 DIFFERENT FILL-ORIGIN LEVEL: 0

PSCL4 TOTAL     ACCESS:      29083  HIT:      29083  MISS:          0  HIT %:        100  MISS %:          0   MPKI: 0
PSCL4 LOAD TRANSLATION ACCESS:      29083  HIT:      29083  MISS:          0  HIT %:        100  MISS %:          0   MPKI: 0
PSCL4 PREFETCH  REQUESTED:          0  ISSUED:          0  USEFUL:          0  USELESS:          0
PSCL4 USEFUL LOAD PREFETCHES:          0 PREFETCH ISSUED TO LOWER LEVEL:          0  ACCURACY: -nan
PSCL4 TIMELY PREFETCHES:          0 LATE PREFETCHES: 0 DROPPED PREFETCHES: 0
PSCL4 PREFETCHES SAME FILL-ORIGIN LEVEL: 0 DIFFERENT FILL-ORIGIN LEVEL: 0

PSCL3 TOTAL     ACCESS:      29083  HIT:      29083  MISS:          0  HIT %:        100  MISS %:          0   MPKI: 0
PSCL3 LOAD TRANSLATION ACCESS:      29083  HIT:      29083  MISS:          0  HIT %:        100  MISS %:          0   MPKI: 0
PSCL3 PREFETCH  REQUESTED:          0  ISSUED:          0  USEFUL:          0  USELESS:          0
PSCL3 USEFUL LOAD PREFETCHES:          0 PREFETCH ISSUED TO LOWER LEVEL:          0  ACCURACY: -nan
PSCL3 TIMELY PREFETCHES:          0 LATE PREFETCHES: 0 DROPPED PREFETCHES: 0
PSCL3 PREFETCHES SAME FILL-ORIGIN LEVEL: 0 DIFFERENT FILL-ORIGIN LEVEL: 0

PSCL2 TOTAL     ACCESS:      29083  HIT:      28773  MISS:        310  HIT %:    98.9341  MISS %:    1.06591   MPKI: 0.0124
PSCL2 LOAD TRANSLATION ACCESS:      29083  HIT:      28773  MISS:        310  HIT %:    98.9341  MISS %:    1.06591   MPKI: 0.0124
PSCL2 PREFETCH  REQUESTED:          0  ISSUED:          0  USEFUL:          0  USELESS:          0
PSCL2 USEFUL LOAD PREFETCHES:          0 PREFETCH ISSUED TO LOWER LEVEL:          0  ACCURACY: -nan
PSCL2 TIMELY PREFETCHES:          0 LATE PREFETCHES: 0 DROPPED PREFETCHES: 0
PSCL2 PREFETCHES SAME FILL-ORIGIN LEVEL: 0 DIFFERENT FILL-ORIGIN LEVEL: 0

LLC TOTAL     ACCESS:    3854684  HIT:    1672145  MISS:    2182539  HIT %:    43.3796  MISS %:    56.6204   MPKI: 87.3016
LLC LOAD      ACCESS:    2824691  HIT:    1499593  MISS:    1325098  HIT %:    53.0887  MISS %:    46.9113   MPKI: 53.0039
LLC RFO       ACCESS:       7284  HIT:       6114  MISS:       1170  HIT %:    83.9374  MISS %:    16.0626   MPKI: 0.0468
LLC PREFETCH  ACCESS:     937093  HIT:      86160  MISS:     850933  HIT %:    9.19439  MISS %:    90.8056   MPKI: 34.0373
AGUS PREFETCH L1 MISS: 0
LLC WRITEBACK ACCESS:      76455  HIT:      76358  MISS:         97  HIT %:    99.8731  MISS %:   0.126872   MPKI: 0.00388
LLC LOAD TRANSLATION ACCESS:       9161  HIT:       3920  MISS:       5241  HIT %:    42.7901  MISS %:    57.2099   MPKI: 0.20964
LLC PREFETCH  REQUESTED:          0  ISSUED:          0  USEFUL:      16760  USELESS:     833548
LLC USEFUL LOAD PREFETCHES:      16760 PREFETCH ISSUED TO LOWER LEVEL:     850933  ACCURACY: 1.9696
LLC TIMELY PREFETCHES:      16760 LATE PREFETCHES: 0 DROPPED PREFETCHES: 0
LLC PREFETCHES SAME FILL-ORIGIN LEVEL: 0 DIFFERENT FILL-ORIGIN LEVEL: 0
LLC AVERAGE MISS LATENCY: 150.986 cycles
LLC RQ	ACCESS:    2841137	FORWARD:          0	MERGED:          0	TO_CACHE:    2841136
LLC WQ	ACCESS:      76455	FORWARD:          1	MERGED:          0	TO_CACHE:      76455
LLC PQ	ACCESS:     937093	FORWARD:          0	MERGED:          0	TO_CACHE:     937093

LLC Dense regions hint to LLC: 0

RAW hits: 62765
Loads Generated: 9014327
Loads sent to L1D: 8951562
Stores Generated: 459660
Stores sent to L1D: 459661
Major fault: 0 Minor fault: 44120
Allocated PAGES: 44120
CPU 0 L1D complex stride prefetcher final stats
Degree: 5

DRAM Statistics
 CHANNEL 0
 RQ ROW_BUFFER_HIT:     852719  ROW_BUFFER_MISS:    1329707
 DBUS_CONGESTED:        139
 WQ ROW_BUFFER_HIT:       9126  ROW_BUFFER_MISS:      30854  FULL:          0

 AVG_CONGESTED_CYCLE: 4
 All warmup complete: 2
Channel 0 Bank busy for read cycles: 0
Channel 0 Bank busy for write cycles: 0
Channel 0
Rank 0
0banks busy for read cycles: 62838457
0banks busy for write cycles: 15604
1banks busy for read cycles: 44150869
1banks busy for write cycles: 2781904
2banks busy for read cycles: 19400590
2banks busy for write cycles: 565923
3banks busy for read cycles: 11042931
3banks busy for write cycles: 239646
4banks busy for read cycles: 7485190
4banks busy for write cycles: 140416
5banks busy for read cycles: 5684804
5banks busy for write cycles: 119273
6banks busy for read cycles: 4349457
6banks busy for write cycles: 108802
7banks busy for read cycles: 3083039
7banks busy for write cycles: 121846
8banks busy for read cycles: 2498422
8banks busy for write cycles: 191159

CPU 0 Branch Prediction Accuracy: 96.3142% MPKI: 11.2642 Average ROB Occupancy at Mispredict: 47.7656
Branch types
NOT_BRANCH: 17359361 69.4374%
BRANCH_DIRECT_JUMP: 954613 3.81845%
BRANCH_INDIRECT: 0 0%
BRANCH_CONDITIONAL: 6513665 26.0547%
BRANCH_DIRECT_CALL: 79755 0.31902%
BRANCH_INDIRECT_CALL: 6250 0.025%
BRANCH_RETURN: 86007 0.344028%
BRANCH_OTHER: 0 0%

DRAM PAGES: 1048576
Allocated PAGES: 44120
