
*** ChampSim Multicore Out-of-Order Simulator ***

Warmup Instructions: 25000000
Simulation Instructions: 25000000
Number of CPUs: 1
LLC sets: 2048
LLC ways: 16
Off-chip DRAM Size: 4096 MB Channels: 1 Width: 64-bit Data Rate: 6400 MT/s
CPU 0 runs /home/yashas/CS683/pa2-lehra-do-prefetcher-wronganswersonly/traces/trace3.champsimtrace.xz
.xz
CPU 0 Bimodal branch predictor
BTB has LRU replacement policy
ITLB has LRU replacement policy
DTLB has LRU replacement policy
STLB has LRU replacement policy
L1I has LRU replacement policy
CPU 0 L1D Optimized prefetcher
L1D has LRU replacement policy
L2C has LRU replacement policy
LLC has LRU replacement policy
Heartbeat CPU 0 instructions: 10000001 cycles: 3773639 heartbeat IPC: 2.64996 cumulative IPC: 2.64996 (Simulation time: 0 hr 0 min 18 sec) 
Heartbeat CPU 0 instructions: 20000000 cycles: 7519176 heartbeat IPC: 2.66984 cumulative IPC: 2.65987 (Simulation time: 0 hr 0 min 36 sec) 

Warmup complete CPU 0 instructions: 25000004 cycles: 9422659 (Simulation time: 0 hr 0 min 45 sec) 

IP_STRIDE Accuracy is 63.9376 
Switching to CPLX L1D prefetcher
CPLX Accuracy is 87.7907 
Switching to NL L1D prefetcher
NL Accuracy is 18.664 
Prefetcher set to CPLX
Heartbeat CPU 0 instructions: 30000001 cycles: 39708831 heartbeat IPC: 0.310659 cumulative IPC: 0.165092 (Simulation time: 0 hr 1 min 7 sec) 
Heartbeat CPU 0 instructions: 40000001 cycles: 100502964 heartbeat IPC: 0.16449 cumulative IPC: 0.16469 (Simulation time: 0 hr 1 min 51 sec) 
Heartbeat CPU 0 instructions: 50000000 cycles: 164574193 heartbeat IPC: 0.156076 cumulative IPC: 0.161133 (Simulation time: 0 hr 2 min 36 sec) 
Finished CPU 0 instructions: 25000000 cycles: 155151536 cumulative IPC: 0.161133 (Simulation time: 0 hr 2 min 36 sec) 

ChampSim completed all CPUs

Region of Interest Statistics

CPU 0 cumulative IPC: 0.161133 instructions: 25000000 cycles: 155151536
ITLB TOTAL     ACCESS:    4048789  HIT:    4048789  MISS:          0  HIT %:        100  MISS %:          0   MPKI: 0
ITLB LOAD TRANSLATION ACCESS:    4048789  HIT:    4048789  MISS:          0  HIT %:        100  MISS %:          0   MPKI: 0
ITLB PREFETCH  REQUESTED:          0  ISSUED:          0  USEFUL:          0  USELESS:          0
ITLB USEFUL LOAD PREFETCHES:          0 PREFETCH ISSUED TO LOWER LEVEL:          0  ACCURACY: -nan
ITLB TIMELY PREFETCHES:          0 LATE PREFETCHES: 0 DROPPED PREFETCHES: 0
ITLB PREFETCHES SAME FILL-ORIGIN LEVEL: 0 DIFFERENT FILL-ORIGIN LEVEL: 0
ITLB AVERAGE MISS LATENCY: -nan cycles
ITLB RQ	ACCESS:    4099958	FORWARD:          0	MERGED:      51170	TO_CACHE:    4048788

DTLB TOTAL     ACCESS:    5229864  HIT:    3025919  MISS:    2203945  HIT %:    57.8585  MISS %:    42.1415   MPKI: 88.1578
DTLB LOAD TRANSLATION ACCESS:    5229864  HIT:    3025919  MISS:    2203945  HIT %:    57.8585  MISS %:    42.1415   MPKI: 88.1578
DTLB PREFETCH  REQUESTED:          0  ISSUED:          0  USEFUL:          0  USELESS:          0
DTLB USEFUL LOAD PREFETCHES:          0 PREFETCH ISSUED TO LOWER LEVEL:          0  ACCURACY: -nan
DTLB TIMELY PREFETCHES:          0 LATE PREFETCHES: 0 DROPPED PREFETCHES: 0
DTLB PREFETCHES SAME FILL-ORIGIN LEVEL: 0 DIFFERENT FILL-ORIGIN LEVEL: 0
DTLB AVERAGE MISS LATENCY: 11.1387 cycles
DTLB RQ	ACCESS:    5759554	FORWARD:          0	MERGED:     495090	TO_CACHE:    5264464

STLB TOTAL     ACCESS:    2837190  HIT:    2808108  MISS:      29082  HIT %:     98.975  MISS %:    1.02503   MPKI: 1.16328
STLB LOAD TRANSLATION ACCESS:    2203945  HIT:    2174863  MISS:      29082  HIT %:    98.6805  MISS %:    1.31954   MPKI: 1.16328
STLB TRANSLATION FROM L1D PREFETCHER ACCESS:     633245  HIT:     633245  MISS:          0  HIT %:        100  MISS %:          0   MPKI: 0
STLB PREFETCH  REQUESTED:          0  ISSUED:          0  USEFUL:          0  USELESS:          0
STLB USEFUL LOAD PREFETCHES:          0 PREFETCH ISSUED TO LOWER LEVEL:          0  ACCURACY: -nan
STLB TIMELY PREFETCHES:          0 LATE PREFETCHES: 0 DROPPED PREFETCHES: 0
STLB PREFETCHES SAME FILL-ORIGIN LEVEL: 0 DIFFERENT FILL-ORIGIN LEVEL: 0
STLB AVERAGE MISS LATENCY: 135.498 cycles
STLB RQ	ACCESS:    5140962	FORWARD:          0	MERGED:    2303772	TO_CACHE:    2837190

STLB Hit, L1D data hit: 0
STLB Hit, L2C data hit: 0
STLB Hit, LLC data hit: 0
STLB Hit, LLC data miss: 0
STLB STLB hints to L2: 0
L1D TOTAL     ACCESS:    7312603  HIT:    3152540  MISS:    4160063  HIT %:    43.1111  MISS %:    56.8889   MPKI: 166.403
L1D LOAD      ACCESS:    5222250  HIT:    2002366  MISS:    3219884  HIT %:     38.343  MISS %:     61.657   MPKI: 128.795
L1D RFO       ACCESS:     423906  HIT:     416040  MISS:       7866  HIT %:    98.1444  MISS %:     1.8556   MPKI: 0.31464
L1D PREFETCH  ACCESS:    1666447  HIT:     734134  MISS:     932313  HIT %:    44.0538  MISS %:    55.9462   MPKI: 37.2925
AGUS PREFETCH L1 MISS: 0
L1D PREFETCH  REQUESTED:    6568777  ISSUED:    6568393  USEFUL:     658865  USELESS:     273406
L1D USEFUL LOAD PREFETCHES:     658865 PREFETCH ISSUED TO LOWER LEVEL:    1200710  ACCURACY: 54.873
L1D TIMELY PREFETCHES:     658865 LATE PREFETCHES: 268397 DROPPED PREFETCHES: 0
L1D PREFETCHES SAME FILL-ORIGIN LEVEL: 1200710 DIFFERENT FILL-ORIGIN LEVEL: 0
L1D AVERAGE MISS LATENCY: 122.864 cycles
L1D RQ	ACCESS:    8951588	FORWARD:          0	MERGED:    3570322	TO_CACHE:    5316435
L1D WQ	ACCESS:     459661	FORWARD:      64832	MERGED:      16542	TO_CACHE:     443119
L1D PQ	ACCESS:    3631376	FORWARD:          0	MERGED:     694358	TO_CACHE:    2937017

L1D UNIQUE REGIONS ACCESSED: 0
L1D REGIONS CONFLICTS: 0
L1D Cross Page Prefetch Requests: 0
L1D Same Page Prefetch Requests: 3631376
L1D ROI Sum of L1D PQ occupancy: 41331562
L1D PREFETCHES PUSHED FROM L2C: 0
L1I TOTAL     ACCESS:    4099959  HIT:    4099959  MISS:          0  HIT %:        100  MISS %:          0   MPKI: 0
L1I LOAD      ACCESS:    4099959  HIT:    4099959  MISS:          0  HIT %:        100  MISS %:          0   MPKI: 0
L1I PREFETCH  REQUESTED:          0  ISSUED:          0  USEFUL:          0  USELESS:          0
L1I USEFUL LOAD PREFETCHES:          0 PREFETCH ISSUED TO LOWER LEVEL:          0  ACCURACY: -nan
L1I TIMELY PREFETCHES:          0 LATE PREFETCHES: 0 DROPPED PREFETCHES: 0
L1I PREFETCHES SAME FILL-ORIGIN LEVEL: 0 DIFFERENT FILL-ORIGIN LEVEL: 0
L1I AVERAGE MISS LATENCY: -nan cycles
L1I RQ	ACCESS:    5504280	FORWARD:          0	MERGED:    1404322	TO_CACHE:    4099958

BTB TOTAL     ACCESS:    7381233  HIT:    7359090  MISS:      22143  HIT %:       99.7  MISS %:   0.299991   MPKI: 0.88572
BTB BRANCH_DIRECT_JUMP	ACCESS:     954613  HIT:     954578  MISS:         35
BTB BRANCH_INDIRECT	ACCESS:          0  HIT:          0  MISS:          0
BTB BRANCH_CONDITIONAL	ACCESS:    6254608  HIT:    6254529  MISS:         79
BTB BRANCH_DIRECT_CALL	ACCESS:      79755  HIT:      79739  MISS:         16
BTB BRANCH_INDIRECT_CALL	ACCESS:       6250  HIT:       6242  MISS:          8
BTB BRANCH_RETURN	ACCESS:      86007  HIT:      64002  MISS:      22005
BTB BRANCH_OTHER ACCESS:          0  HIT:          0  MISS:          0

L2C TOTAL     ACCESS:    4269093  HIT:     503045  MISS:    3766048  HIT %:    11.7834  MISS %:    88.2166   MPKI: 150.642
L2C LOAD      ACCESS:    2951483  HIT:     383109  MISS:    2568374  HIT %:    12.9802  MISS %:    87.0198   MPKI: 102.735
L2C DATA LOAD MPKI: 102.735
L2C INSTRUCTION LOAD MPKI: 0
L2C RFO       ACCESS:       7866  HIT:        624  MISS:       7242  HIT %:    7.93288  MISS %:    92.0671   MPKI: 0.28968
L2C PREFETCH  ACCESS:    1200710  HIT:      19455  MISS:    1181255  HIT %:    1.62029  MISS %:    98.3797   MPKI: 47.2502
AGUS PREFETCH L1 MISS: 0
L2C DATA PREFETCH MPKI: 47.2502
L2C INSTRUCTION PREFETCH MPKI: 0
L2C WRITEBACK ACCESS:      79779  HIT:      79779  MISS:          0  HIT %:        100  MISS %:          0   MPKI: 0
L2C LOAD TRANSLATION ACCESS:      29255  HIT:      20078  MISS:       9177  HIT %:     68.631  MISS %:     31.369   MPKI: 0.36708
L2C PREFETCH  REQUESTED:          0  ISSUED:          0  USEFUL:      11772  USELESS:    1167112
L2C USEFUL LOAD PREFETCHES:      11772 PREFETCH ISSUED TO LOWER LEVEL:    1181255  ACCURACY: 0.996567
L2C TIMELY PREFETCHES:      11772 LATE PREFETCHES: 0 DROPPED PREFETCHES: 0
L2C PREFETCHES SAME FILL-ORIGIN LEVEL: 0 DIFFERENT FILL-ORIGIN LEVEL: 0
L2C AVERAGE MISS LATENCY: 119.015 cycles
L2C RQ	ACCESS:    2988608	FORWARD:          0	MERGED:          0	TO_CACHE:    2988604
L2C WQ	ACCESS:      79779	FORWARD:          4	MERGED:          0	TO_CACHE:      79779
L2C PQ	ACCESS:    1200710	FORWARD:          0	MERGED:          0	TO_CACHE:    1200710

L2C Instructions Evicting Data 0
L2C Translations Evicting Data 9157
L2C Data Evicting Data 3747731
L2C Instructions Evicting Instructions 0
L2C Translations Evicting Instructions 0
L2C Data Evicting Instructions 0
L2C Instructions Evicting Translations 0
L2C Translations Evicting Translations 20
L2C Data Evicting Translations 9140
L2C Dense regions hint from L2: 0
PSCL5 TOTAL     ACCESS:      29082  HIT:      29082  MISS:          0  HIT %:        100  MISS %:          0   MPKI: 0
PSCL5 LOAD TRANSLATION ACCESS:      29082  HIT:      29082  MISS:          0  HIT %:        100  MISS %:          0   MPKI: 0
PSCL5 PREFETCH  REQUESTED:          0  ISSUED:          0  USEFUL:          0  USELESS:          0
PSCL5 USEFUL LOAD PREFETCHES:          0 PREFETCH ISSUED TO LOWER LEVEL:          0  ACCURACY: -nan
PSCL5 TIMELY PREFETCHES:          0 LATE PREFETCHES: 0 DROPPED PREFETCHES: 0
PSCL5 PREFETCHES SAME FILL-ORIGIN LEVEL: 0 DIFFERENT FILL-ORIGIN LEVEL: 0

PSCL4 TOTAL     ACCESS:      29082  HIT:      29082  MISS:          0  HIT %:        100  MISS %:          0   MPKI: 0
PSCL4 LOAD TRANSLATION ACCESS:      29082  HIT:      29082  MISS:          0  HIT %:        100  MISS %:          0   MPKI: 0
PSCL4 PREFETCH  REQUESTED:          0  ISSUED:          0  USEFUL:          0  USELESS:          0
PSCL4 USEFUL LOAD PREFETCHES:          0 PREFETCH ISSUED TO LOWER LEVEL:          0  ACCURACY: -nan
PSCL4 TIMELY PREFETCHES:          0 LATE PREFETCHES: 0 DROPPED PREFETCHES: 0
PSCL4 PREFETCHES SAME FILL-ORIGIN LEVEL: 0 DIFFERENT FILL-ORIGIN LEVEL: 0

PSCL3 TOTAL     ACCESS:      29082  HIT:      29082  MISS:          0  HIT %:        100  MISS %:          0   MPKI: 0
PSCL3 LOAD TRANSLATION ACCESS:      29082  HIT:      29082  MISS:          0  HIT %:        100  MISS %:          0   MPKI: 0
PSCL3 PREFETCH  REQUESTED:          0  ISSUED:          0  USEFUL:          0  USELESS:          0
PSCL3 USEFUL LOAD PREFETCHES:          0 PREFETCH ISSUED TO LOWER LEVEL:          0  ACCURACY: -nan
PSCL3 TIMELY PREFETCHES:          0 LATE PREFETCHES: 0 DROPPED PREFETCHES: 0
PSCL3 PREFETCHES SAME FILL-ORIGIN LEVEL: 0 DIFFERENT FILL-ORIGIN LEVEL: 0

PSCL2 TOTAL     ACCESS:      29082  HIT:      28773  MISS:        309  HIT %:    98.9375  MISS %:    1.06251   MPKI: 0.01236
PSCL2 LOAD TRANSLATION ACCESS:      29082  HIT:      28773  MISS:        309  HIT %:    98.9375  MISS %:    1.06251   MPKI: 0.01236
PSCL2 PREFETCH  REQUESTED:          0  ISSUED:          0  USEFUL:          0  USELESS:          0
PSCL2 USEFUL LOAD PREFETCHES:          0 PREFETCH ISSUED TO LOWER LEVEL:          0  ACCURACY: -nan
PSCL2 TIMELY PREFETCHES:          0 LATE PREFETCHES: 0 DROPPED PREFETCHES: 0
PSCL2 PREFETCHES SAME FILL-ORIGIN LEVEL: 0 DIFFERENT FILL-ORIGIN LEVEL: 0

LLC TOTAL     ACCESS:    3842378  HIT:    1653672  MISS:    2188706  HIT %:    43.0377  MISS %:    56.9623   MPKI: 87.5482
LLC LOAD      ACCESS:    2568373  HIT:    1495752  MISS:    1072621  HIT %:    58.2373  MISS %:    41.7627   MPKI: 42.9048
LLC RFO       ACCESS:       7242  HIT:       6054  MISS:       1188  HIT %:    83.5957  MISS %:    16.4043   MPKI: 0.04752
LLC PREFETCH  ACCESS:    1181255  HIT:      71694  MISS:    1109561  HIT %:    6.06931  MISS %:    93.9307   MPKI: 44.3824
AGUS PREFETCH L1 MISS: 0
LLC WRITEBACK ACCESS:      76331  HIT:      76243  MISS:         88  HIT %:    99.8847  MISS %:   0.115287   MPKI: 0.00352
LLC LOAD TRANSLATION ACCESS:       9177  HIT:       3929  MISS:       5248  HIT %:    42.8136  MISS %:    57.1864   MPKI: 0.20992
LLC PREFETCH  REQUESTED:          0  ISSUED:          0  USEFUL:      15927  USELESS:    1080322
LLC USEFUL LOAD PREFETCHES:      15927 PREFETCH ISSUED TO LOWER LEVEL:    1109561  ACCURACY: 1.43543
LLC TIMELY PREFETCHES:      15927 LATE PREFETCHES: 0 DROPPED PREFETCHES: 0
LLC PREFETCHES SAME FILL-ORIGIN LEVEL: 0 DIFFERENT FILL-ORIGIN LEVEL: 0
LLC AVERAGE MISS LATENCY: 152.51 cycles
LLC RQ	ACCESS:    2584793	FORWARD:          0	MERGED:          0	TO_CACHE:    2584792
LLC WQ	ACCESS:      76331	FORWARD:          1	MERGED:          0	TO_CACHE:      76331
LLC PQ	ACCESS:    1181255	FORWARD:          0	MERGED:          0	TO_CACHE:    1181255

LLC Dense regions hint to LLC: 0

RAW hits: 62739
Loads Generated: 9014327
Loads sent to L1D: 8951588
Stores Generated: 459660
Stores sent to L1D: 459661
Major fault: 0 Minor fault: 44120
Allocated PAGES: 44120
CPU 0 L1D optimized prefetcher final stats
Degree: 5

DRAM Statistics
 CHANNEL 0
 RQ ROW_BUFFER_HIT:     836254  ROW_BUFFER_MISS:    1352345
 DBUS_CONGESTED:        266
 WQ ROW_BUFFER_HIT:       9858  ROW_BUFFER_MISS:      30253  FULL:          0

 AVG_CONGESTED_CYCLE: 4
 All warmup complete: 2
Channel 0 Bank busy for read cycles: 0
Channel 0 Bank busy for write cycles: 0
Channel 0
Rank 0
0banks busy for read cycles: 54830852
0banks busy for write cycles: 14798
1banks busy for read cycles: 39004181
1banks busy for write cycles: 2803979
2banks busy for read cycles: 19911703
2banks busy for write cycles: 555172
3banks busy for read cycles: 12599881
3banks busy for write cycles: 236693
4banks busy for read cycles: 9139952
4banks busy for write cycles: 143908
5banks busy for read cycles: 6581373
5banks busy for write cycles: 114370
6banks busy for read cycles: 4410479
6banks busy for write cycles: 107687
7banks busy for read cycles: 2533663
7banks busy for write cycles: 130502
8banks busy for read cycles: 1800143
8banks busy for write cycles: 232201

CPU 0 Branch Prediction Accuracy: 96.3142% MPKI: 11.2642 Average ROB Occupancy at Mispredict: 46.5899
Branch types
NOT_BRANCH: 17359361 69.4374%
BRANCH_DIRECT_JUMP: 954613 3.81845%
BRANCH_INDIRECT: 0 0%
BRANCH_CONDITIONAL: 6513665 26.0547%
BRANCH_DIRECT_CALL: 79755 0.31902%
BRANCH_INDIRECT_CALL: 6250 0.025%
BRANCH_RETURN: 86007 0.344028%
BRANCH_OTHER: 0 0%

DRAM PAGES: 1048576
Allocated PAGES: 44120
