
*** ChampSim Multicore Out-of-Order Simulator ***

Warmup Instructions: 25000000
Simulation Instructions: 25000000
Number of CPUs: 1
LLC sets: 2048
LLC ways: 16
Off-chip DRAM Size: 4096 MB Channels: 1 Width: 64-bit Data Rate: 6400 MT/s
CPU 0 runs /home/yashas/CS683/pa2-lehra-do-prefetcher-wronganswersonly/traces/trace1.champsimtrace.xz
.xz
CPU 0 Bimodal branch predictor
BTB has LRU replacement policy
ITLB has LRU replacement policy
DTLB has LRU replacement policy
STLB has LRU replacement policy
L1I has LRU replacement policy
CPU 0 L1D Complex-Stride prefetcher
L1D has LRU replacement policy
L2C has LRU replacement policy
LLC has LRU replacement policy
Heartbeat CPU 0 instructions: 10000003 cycles: 2830058 heartbeat IPC: 3.5335 cumulative IPC: 3.5335 (Simulation time: 0 hr 0 min 15 sec) 
Heartbeat CPU 0 instructions: 20000003 cycles: 5650230 heartbeat IPC: 3.54588 cumulative IPC: 3.53968 (Simulation time: 0 hr 0 min 30 sec) 

Warmup complete CPU 0 instructions: 25000004 cycles: 7064382 (Simulation time: 0 hr 0 min 38 sec) 

Heartbeat CPU 0 instructions: 30000002 cycles: 23984083 heartbeat IPC: 0.545439 cumulative IPC: 0.295513 (Simulation time: 0 hr 0 min 58 sec) 
Heartbeat CPU 0 instructions: 40000001 cycles: 60317560 heartbeat IPC: 0.275228 cumulative IPC: 0.281673 (Simulation time: 0 hr 1 min 42 sec) 
Heartbeat CPU 0 instructions: 50000000 cycles: 95481246 heartbeat IPC: 0.284384 cumulative IPC: 0.282751 (Simulation time: 0 hr 2 min 24 sec) 
Finished CPU 0 instructions: 25000000 cycles: 88416866 cumulative IPC: 0.282752 (Simulation time: 0 hr 2 min 24 sec) 

ChampSim completed all CPUs

Region of Interest Statistics

CPU 0 cumulative IPC: 0.282752 instructions: 25000000 cycles: 88416866
ITLB TOTAL     ACCESS:    4437996  HIT:    4437996  MISS:          0  HIT %:        100  MISS %:          0   MPKI: 0
ITLB LOAD TRANSLATION ACCESS:    4437996  HIT:    4437996  MISS:          0  HIT %:        100  MISS %:          0   MPKI: 0
ITLB PREFETCH  REQUESTED:          0  ISSUED:          0  USEFUL:          0  USELESS:          0
ITLB USEFUL LOAD PREFETCHES:          0 PREFETCH ISSUED TO LOWER LEVEL:          0  ACCURACY: -nan
ITLB TIMELY PREFETCHES:          0 LATE PREFETCHES: 0 DROPPED PREFETCHES: 0
ITLB PREFETCHES SAME FILL-ORIGIN LEVEL: 0 DIFFERENT FILL-ORIGIN LEVEL: 0
ITLB AVERAGE MISS LATENCY: -nan cycles
ITLB RQ	ACCESS:    4791747	FORWARD:          0	MERGED:     353751	TO_CACHE:    4437996

DTLB TOTAL     ACCESS:    3715396  HIT:    3052486  MISS:     662910  HIT %:    82.1578  MISS %:    17.8422   MPKI: 26.5164
DTLB LOAD TRANSLATION ACCESS:    3715396  HIT:    3052486  MISS:     662910  HIT %:    82.1578  MISS %:    17.8422   MPKI: 26.5164
DTLB PREFETCH  REQUESTED:          0  ISSUED:          0  USEFUL:          0  USELESS:          0
DTLB USEFUL LOAD PREFETCHES:          0 PREFETCH ISSUED TO LOWER LEVEL:          0  ACCURACY: -nan
DTLB TIMELY PREFETCHES:          0 LATE PREFETCHES: 0 DROPPED PREFETCHES: 0
DTLB PREFETCHES SAME FILL-ORIGIN LEVEL: 0 DIFFERENT FILL-ORIGIN LEVEL: 0
DTLB AVERAGE MISS LATENCY: 54.2766 cycles
DTLB RQ	ACCESS:    4315227	FORWARD:          0	MERGED:     591303	TO_CACHE:    3723924

STLB TOTAL     ACCESS:     663927  HIT:     101897  MISS:     562030  HIT %:    15.3476  MISS %:    84.6524   MPKI: 22.4812
STLB LOAD TRANSLATION ACCESS:     662910  HIT:     100884  MISS:     562026  HIT %:    15.2184  MISS %:    84.7816   MPKI: 22.481
STLB TRANSLATION FROM L1D PREFETCHER ACCESS:       1017  HIT:       1013  MISS:          4  HIT %:    99.6067  MISS %:   0.393314   MPKI: 0.00016
STLB PREFETCH  REQUESTED:          0  ISSUED:          0  USEFUL:          1  USELESS:          3
STLB USEFUL LOAD PREFETCHES:          1 PREFETCH ISSUED TO LOWER LEVEL:          0  ACCURACY: inf
STLB TIMELY PREFETCHES:          1 LATE PREFETCHES: 0 DROPPED PREFETCHES: 0
STLB PREFETCHES SAME FILL-ORIGIN LEVEL: 0 DIFFERENT FILL-ORIGIN LEVEL: 0
STLB AVERAGE MISS LATENCY: 53.2552 cycles
STLB RQ	ACCESS:     664210	FORWARD:          0	MERGED:        280	TO_CACHE:     663930

STLB Hit, L1D data hit: 0
STLB Hit, L2C data hit: 0
STLB Hit, LLC data hit: 0
STLB Hit, LLC data miss: 0
STLB STLB hints to L2: 0
L1D TOTAL     ACCESS:    4296922  HIT:    3090855  MISS:    1206067  HIT %:    71.9318  MISS %:    28.0682   MPKI: 48.2427
L1D LOAD      ACCESS:    3187031  HIT:    2051409  MISS:    1135622  HIT %:    64.3674  MISS %:    35.6326   MPKI: 45.4249
L1D RFO       ACCESS:    1108665  HIT:    1039302  MISS:      69363  HIT %:    93.7436  MISS %:    6.25644   MPKI: 2.77452
L1D PREFETCH  ACCESS:       1226  HIT:        144  MISS:       1082  HIT %:    11.7455  MISS %:    88.2545   MPKI: 0.04328
AGUS PREFETCH L1 MISS: 0
L1D PREFETCH  REQUESTED:       2703  ISSUED:       2703  USEFUL:        268  USELESS:        814
L1D USEFUL LOAD PREFETCHES:        268 PREFETCH ISSUED TO LOWER LEVEL:       1107  ACCURACY: 24.2096
L1D TIMELY PREFETCHES:        268 LATE PREFETCHES: 25 DROPPED PREFETCHES: 0
L1D PREFETCHES SAME FILL-ORIGIN LEVEL: 1107 DIFFERENT FILL-ORIGIN LEVEL: 0
L1D AVERAGE MISS LATENCY: 124.614 cycles
L1D RQ	ACCESS:    6162526	FORWARD:          0	MERGED:    2890453	TO_CACHE:    3206560
L1D WQ	ACCESS:    1108674	FORWARD:      65513	MERGED:          7	TO_CACHE:    1108667
L1D PQ	ACCESS:       1406	FORWARD:          0	MERGED:        109	TO_CACHE:       1297

L1D UNIQUE REGIONS ACCESSED: 0
L1D REGIONS CONFLICTS: 0
L1D Cross Page Prefetch Requests: 0
L1D Same Page Prefetch Requests: 3091
L1D ROI Sum of L1D PQ occupancy: 17296
L1D PREFETCHES PUSHED FROM L2C: 0
L1I TOTAL     ACCESS:    4791745  HIT:    4791745  MISS:          0  HIT %:        100  MISS %:          0   MPKI: 0
L1I LOAD      ACCESS:    4791745  HIT:    4791745  MISS:          0  HIT %:        100  MISS %:          0   MPKI: 0
L1I PREFETCH  REQUESTED:          0  ISSUED:          0  USEFUL:          0  USELESS:          0
L1I USEFUL LOAD PREFETCHES:          0 PREFETCH ISSUED TO LOWER LEVEL:          0  ACCURACY: -nan
L1I TIMELY PREFETCHES:          0 LATE PREFETCHES: 0 DROPPED PREFETCHES: 0
L1I PREFETCHES SAME FILL-ORIGIN LEVEL: 0 DIFFERENT FILL-ORIGIN LEVEL: 0
L1I AVERAGE MISS LATENCY: -nan cycles
L1I RQ	ACCESS:    7099061	FORWARD:          0	MERGED:    2307314	TO_CACHE:    4791747

BTB TOTAL     ACCESS:    3283965  HIT:    3283957  MISS:          8  HIT %:    99.9998  MISS %: 0.000243608   MPKI: 0.00032
BTB BRANCH_DIRECT_JUMP	ACCESS:     568311  HIT:     568309  MISS:          2
BTB BRANCH_INDIRECT	ACCESS:          0  HIT:          0  MISS:          0
BTB BRANCH_CONDITIONAL	ACCESS:    1606986  HIT:    1606982  MISS:          4
BTB BRANCH_DIRECT_CALL	ACCESS:     554334  HIT:     554333  MISS:          1
BTB BRANCH_INDIRECT_CALL	ACCESS:          0  HIT:          0  MISS:          0
BTB BRANCH_RETURN	ACCESS:     554334  HIT:     554333  MISS:          1
BTB BRANCH_OTHER ACCESS:          0  HIT:          0  MISS:          0

L2C TOTAL     ACCESS:    2399290  HIT:    1414953  MISS:     984337  HIT %:    58.9738  MISS %:    41.0262   MPKI: 39.3735
L2C LOAD      ACCESS:    1135597  HIT:     417414  MISS:     718183  HIT %:    36.7572  MISS %:    63.2428   MPKI: 28.7273
L2C DATA LOAD MPKI: 28.7273
L2C INSTRUCTION LOAD MPKI: 0
L2C RFO       ACCESS:      69363  HIT:      42311  MISS:      27052  HIT %:    60.9994  MISS %:    39.0006   MPKI: 1.08208
L2C PREFETCH  ACCESS:       1107  HIT:        234  MISS:        873  HIT %:    21.1382  MISS %:    78.8618   MPKI: 0.03492
AGUS PREFETCH L1 MISS: 0
L2C DATA PREFETCH MPKI: 0.03492
L2C INSTRUCTION PREFETCH MPKI: 0
L2C WRITEBACK ACCESS:     554350  HIT:     554350  MISS:          0  HIT %:        100  MISS %:          0   MPKI: 0
L2C LOAD TRANSLATION ACCESS:     638865  HIT:     400640  MISS:     238225  HIT %:    62.7112  MISS %:    37.2888   MPKI: 9.529
L2C TRANSLATION FROM L1D PREFETCHER ACCESS:          8  HIT:          4  MISS:          4  HIT %:         50  MISS %:         50   MPKI: 0.00016
L2C PREFETCH  REQUESTED:          0  ISSUED:          0  USEFUL:         12  USELESS:        860
L2C USEFUL LOAD PREFETCHES:         12 PREFETCH ISSUED TO LOWER LEVEL:        873  ACCURACY: 1.37457
L2C TIMELY PREFETCHES:         12 LATE PREFETCHES: 0 DROPPED PREFETCHES: 0
L2C PREFETCHES SAME FILL-ORIGIN LEVEL: 0 DIFFERENT FILL-ORIGIN LEVEL: 0
L2C AVERAGE MISS LATENCY: 142.699 cycles
L2C RQ	ACCESS:    1843834	FORWARD:          0	MERGED:          0	TO_CACHE:    1843834
L2C WQ	ACCESS:     554350	FORWARD:          0	MERGED:          0	TO_CACHE:     554350
L2C PQ	ACCESS:       1107	FORWARD:          0	MERGED:          0	TO_CACHE:       1107

L2C Instructions Evicting Data 0
L2C Translations Evicting Data 142572
L2C Data Evicting Data 603461
L2C Instructions Evicting Instructions 0
L2C Translations Evicting Instructions 0
L2C Data Evicting Instructions 0
L2C Instructions Evicting Translations 0
L2C Translations Evicting Translations 95657
L2C Data Evicting Translations 142647
L2C Dense regions hint from L2: 0
PSCL5 TOTAL     ACCESS:     562031  HIT:     562031  MISS:          0  HIT %:        100  MISS %:          0   MPKI: 0
PSCL5 LOAD TRANSLATION ACCESS:     562027  HIT:     562027  MISS:          0  HIT %:        100  MISS %:          0   MPKI: 0
PSCL5 TRANSLATION FROM L1D PREFETCHER ACCESS:          4  HIT:          4  MISS:          0  HIT %:        100  MISS %:          0   MPKI: 0
PSCL5 PREFETCH  REQUESTED:          0  ISSUED:          0  USEFUL:          0  USELESS:          0
PSCL5 USEFUL LOAD PREFETCHES:          0 PREFETCH ISSUED TO LOWER LEVEL:          0  ACCURACY: -nan
PSCL5 TIMELY PREFETCHES:          0 LATE PREFETCHES: 0 DROPPED PREFETCHES: 0
PSCL5 PREFETCHES SAME FILL-ORIGIN LEVEL: 0 DIFFERENT FILL-ORIGIN LEVEL: 0

PSCL4 TOTAL     ACCESS:     562031  HIT:     562031  MISS:          0  HIT %:        100  MISS %:          0   MPKI: 0
PSCL4 LOAD TRANSLATION ACCESS:     562027  HIT:     562027  MISS:          0  HIT %:        100  MISS %:          0   MPKI: 0
PSCL4 TRANSLATION FROM L1D PREFETCHER ACCESS:          4  HIT:          4  MISS:          0  HIT %:        100  MISS %:          0   MPKI: 0
PSCL4 PREFETCH  REQUESTED:          0  ISSUED:          0  USEFUL:          0  USELESS:          0
PSCL4 USEFUL LOAD PREFETCHES:          0 PREFETCH ISSUED TO LOWER LEVEL:          0  ACCURACY: -nan
PSCL4 TIMELY PREFETCHES:          0 LATE PREFETCHES: 0 DROPPED PREFETCHES: 0
PSCL4 PREFETCHES SAME FILL-ORIGIN LEVEL: 0 DIFFERENT FILL-ORIGIN LEVEL: 0

PSCL3 TOTAL     ACCESS:     562031  HIT:     562031  MISS:          0  HIT %:        100  MISS %:          0   MPKI: 0
PSCL3 LOAD TRANSLATION ACCESS:     562027  HIT:     562027  MISS:          0  HIT %:        100  MISS %:          0   MPKI: 0
PSCL3 TRANSLATION FROM L1D PREFETCHER ACCESS:          4  HIT:          4  MISS:          0  HIT %:        100  MISS %:          0   MPKI: 0
PSCL3 PREFETCH  REQUESTED:          0  ISSUED:          0  USEFUL:          0  USELESS:          0
PSCL3 USEFUL LOAD PREFETCHES:          0 PREFETCH ISSUED TO LOWER LEVEL:          0  ACCURACY: -nan
PSCL3 TIMELY PREFETCHES:          0 LATE PREFETCHES: 0 DROPPED PREFETCHES: 0
PSCL3 PREFETCHES SAME FILL-ORIGIN LEVEL: 0 DIFFERENT FILL-ORIGIN LEVEL: 0

PSCL2 TOTAL     ACCESS:     562031  HIT:     485188  MISS:      76843  HIT %:    86.3276  MISS %:    13.6724   MPKI: 3.07372
PSCL2 LOAD TRANSLATION ACCESS:     562031  HIT:     485188  MISS:      76843  HIT %:    86.3276  MISS %:    13.6724   MPKI: 3.07372
PSCL2 PREFETCH  REQUESTED:          0  ISSUED:          0  USEFUL:          0  USELESS:          0
PSCL2 USEFUL LOAD PREFETCHES:          0 PREFETCH ISSUED TO LOWER LEVEL:          0  ACCURACY: -nan
PSCL2 TIMELY PREFETCHES:          0 LATE PREFETCHES: 0 DROPPED PREFETCHES: 0
PSCL2 PREFETCHES SAME FILL-ORIGIN LEVEL: 0 DIFFERENT FILL-ORIGIN LEVEL: 0

LLC TOTAL     ACCESS:    1539121  HIT:     888819  MISS:     650302  HIT %:    57.7485  MISS %:    42.2515   MPKI: 26.0121
LLC LOAD      ACCESS:     718183  HIT:      76757  MISS:     641426  HIT %:    10.6877  MISS %:    89.3123   MPKI: 25.657
LLC RFO       ACCESS:      27052  HIT:      27048  MISS:          4  HIT %:    99.9852  MISS %:  0.0147863   MPKI: 0.00016
LLC PREFETCH  ACCESS:        873  HIT:        392  MISS:        481  HIT %:    44.9026  MISS %:    55.0974   MPKI: 0.01924
AGUS PREFETCH L1 MISS: 0
LLC WRITEBACK ACCESS:     554784  HIT:     554784  MISS:          0  HIT %:        100  MISS %:          0   MPKI: 0
LLC LOAD TRANSLATION ACCESS:     238225  HIT:     229834  MISS:       8391  HIT %:    96.4777  MISS %:     3.5223   MPKI: 0.33564
LLC TRANSLATION FROM L1D PREFETCHER ACCESS:          4  HIT:          4  MISS:          0  HIT %:        100  MISS %:          0   MPKI: 0
LLC PREFETCH  REQUESTED:          0  ISSUED:          0  USEFUL:         39  USELESS:        406
LLC USEFUL LOAD PREFETCHES:         39 PREFETCH ISSUED TO LOWER LEVEL:        481  ACCURACY: 8.10811
LLC TIMELY PREFETCHES:         39 LATE PREFETCHES: 0 DROPPED PREFETCHES: 0
LLC PREFETCHES SAME FILL-ORIGIN LEVEL: 0 DIFFERENT FILL-ORIGIN LEVEL: 0
LLC AVERAGE MISS LATENCY: 170.403 cycles
LLC RQ	ACCESS:     983465	FORWARD:          0	MERGED:          0	TO_CACHE:     983465
LLC WQ	ACCESS:     554784	FORWARD:          0	MERGED:          0	TO_CACHE:     554784
LLC PQ	ACCESS:        873	FORWARD:          0	MERGED:          0	TO_CACHE:        873

LLC Dense regions hint to LLC: 0

RAW hits: 488011
Loads Generated: 6650540
Loads sent to L1D: 6162526
Stores Generated: 1108674
Stores sent to L1D: 1108674
Major fault: 0 Minor fault: 23115
Allocated PAGES: 23115
CPU 0 L1D complex stride prefetcher final stats
Degree: 5

DRAM Statistics
 CHANNEL 0
 RQ ROW_BUFFER_HIT:        766  ROW_BUFFER_MISS:     649536
 DBUS_CONGESTED:          5
 WQ ROW_BUFFER_HIT:     200524  ROW_BUFFER_MISS:     353935  FULL:          0

 AVG_CONGESTED_CYCLE: 5
 All warmup complete: 2
Channel 0 Bank busy for read cycles: 0
Channel 0 Bank busy for write cycles: 0
Channel 0
Rank 0
0banks busy for read cycles: 2808935
0banks busy for write cycles: 64874
1banks busy for read cycles: 20633561
1banks busy for write cycles: 4950473
2banks busy for read cycles: 14346893
2banks busy for write cycles: 7130759
3banks busy for read cycles: 11277058
3banks busy for write cycles: 10286772
4banks busy for read cycles: 3561065
4banks busy for write cycles: 8195313
5banks busy for read cycles: 13137
5banks busy for write cycles: 2982053
6banks busy for read cycles: 123
6banks busy for write cycles: 1148814
7banks busy for read cycles: 0
7banks busy for write cycles: 560824
8banks busy for read cycles: 0
8banks busy for write cycles: 456213

CPU 0 Branch Prediction Accuracy: 99.9685% MPKI: 0.04912 Average ROB Occupancy at Mispredict: 155.88
Branch types
NOT_BRANCH: 21105652 84.4226%
BRANCH_DIRECT_JUMP: 568311 2.27324%
BRANCH_INDIRECT: 0 0%
BRANCH_CONDITIONAL: 2217337 8.86935%
BRANCH_DIRECT_CALL: 554334 2.21734%
BRANCH_INDIRECT_CALL: 0 0%
BRANCH_RETURN: 554334 2.21734%
BRANCH_OTHER: 0 0%

DRAM PAGES: 1048576
Allocated PAGES: 23115
