
*** ChampSim Multicore Out-of-Order Simulator ***

Warmup Instructions: 25000000
Simulation Instructions: 25000000
Number of CPUs: 1
LLC sets: 2048
LLC ways: 16
Off-chip DRAM Size: 4096 MB Channels: 1 Width: 64-bit Data Rate: 6400 MT/s
CPU 0 runs /home/yashas/CS683/pa2-lehra-do-prefetcher-wronganswersonly/traces/trace2.champsimtrace.xz
.xz
CPU 0 Bimodal branch predictor
BTB has LRU replacement policy
ITLB has LRU replacement policy
DTLB has LRU replacement policy
STLB has LRU replacement policy
L1I has LRU replacement policy
CPU 0 L1D Complex-Stride prefetcher
L1D has LRU replacement policy
L2C has LRU replacement policy
LLC has LRU replacement policy
Heartbeat CPU 0 instructions: 10000002 cycles: 3739558 heartbeat IPC: 2.67411 cumulative IPC: 2.67411 (Simulation time: 0 hr 0 min 18 sec) 
Heartbeat CPU 0 instructions: 20000001 cycles: 7480768 heartbeat IPC: 2.67293 cumulative IPC: 2.67352 (Simulation time: 0 hr 0 min 37 sec) 

Warmup complete CPU 0 instructions: 25000001 cycles: 9350604 (Simulation time: 0 hr 0 min 46 sec) 

Heartbeat CPU 0 instructions: 30000001 cycles: 35374631 heartbeat IPC: 0.358502 cumulative IPC: 0.19213 (Simulation time: 0 hr 1 min 8 sec) 
Heartbeat CPU 0 instructions: 40000002 cycles: 87068444 heartbeat IPC: 0.193447 cumulative IPC: 0.193006 (Simulation time: 0 hr 1 min 51 sec) 
Heartbeat CPU 0 instructions: 50000000 cycles: 137181602 heartbeat IPC: 0.199548 cumulative IPC: 0.195571 (Simulation time: 0 hr 2 min 34 sec) 
Finished CPU 0 instructions: 25000000 cycles: 127831020 cumulative IPC: 0.195571 (Simulation time: 0 hr 2 min 34 sec) 

ChampSim completed all CPUs

Region of Interest Statistics

CPU 0 cumulative IPC: 0.195571 instructions: 25000000 cycles: 127831020
ITLB TOTAL     ACCESS:    5003249  HIT:    5003249  MISS:          0  HIT %:        100  MISS %:          0   MPKI: 0
ITLB LOAD TRANSLATION ACCESS:    5003249  HIT:    5003249  MISS:          0  HIT %:        100  MISS %:          0   MPKI: 0
ITLB PREFETCH  REQUESTED:          0  ISSUED:          0  USEFUL:          0  USELESS:          0
ITLB USEFUL LOAD PREFETCHES:          0 PREFETCH ISSUED TO LOWER LEVEL:          0  ACCURACY: -nan
ITLB TIMELY PREFETCHES:          0 LATE PREFETCHES: 0 DROPPED PREFETCHES: 0
ITLB PREFETCHES SAME FILL-ORIGIN LEVEL: 0 DIFFERENT FILL-ORIGIN LEVEL: 0
ITLB AVERAGE MISS LATENCY: -nan cycles
ITLB RQ	ACCESS:    5088670	FORWARD:          0	MERGED:      85421	TO_CACHE:    5003249

DTLB TOTAL     ACCESS:    3869314  HIT:    3835301  MISS:      34013  HIT %:     99.121  MISS %:   0.879045   MPKI: 1.36052
DTLB LOAD TRANSLATION ACCESS:    3869314  HIT:    3835301  MISS:      34013  HIT %:     99.121  MISS %:   0.879045   MPKI: 1.36052
DTLB PREFETCH  REQUESTED:          0  ISSUED:          0  USEFUL:          0  USELESS:          0
DTLB USEFUL LOAD PREFETCHES:          0 PREFETCH ISSUED TO LOWER LEVEL:          0  ACCURACY: -nan
DTLB TIMELY PREFETCHES:          0 LATE PREFETCHES: 0 DROPPED PREFETCHES: 0
DTLB PREFETCHES SAME FILL-ORIGIN LEVEL: 0 DIFFERENT FILL-ORIGIN LEVEL: 0
DTLB AVERAGE MISS LATENCY: 106.185 cycles
DTLB RQ	ACCESS:    4553795	FORWARD:          0	MERGED:     684365	TO_CACHE:    3869430

STLB TOTAL     ACCESS:    2212652  HIT:    2179985  MISS:      32667  HIT %:    98.5236  MISS %:    1.47637   MPKI: 1.30668
STLB LOAD TRANSLATION ACCESS:      34013  HIT:       1351  MISS:      32662  HIT %:    3.97201  MISS %:     96.028   MPKI: 1.30648
STLB TRANSLATION FROM L1D PREFETCHER ACCESS:    2178639  HIT:    2178634  MISS:          5  HIT %:    99.9998  MISS %: 0.000229501   MPKI: 0.0002
STLB PREFETCH  REQUESTED:          0  ISSUED:          0  USEFUL:          5  USELESS:          0
STLB USEFUL LOAD PREFETCHES:          5 PREFETCH ISSUED TO LOWER LEVEL:          0  ACCURACY: inf
STLB TIMELY PREFETCHES:          5 LATE PREFETCHES: 0 DROPPED PREFETCHES: 0
STLB PREFETCHES SAME FILL-ORIGIN LEVEL: 0 DIFFERENT FILL-ORIGIN LEVEL: 0
STLB AVERAGE MISS LATENCY: 101.243 cycles
STLB RQ	ACCESS:    4618546	FORWARD:          0	MERGED:    2405893	TO_CACHE:    2212653

STLB Hit, L1D data hit: 0
STLB Hit, L2C data hit: 0
STLB Hit, LLC data hit: 0
STLB Hit, LLC data miss: 0
STLB STLB hints to L2: 0
L1D TOTAL     ACCESS:    6855203  HIT:    5061558  MISS:    1793645  HIT %:    73.8353  MISS %:    26.1647   MPKI: 71.7458
L1D LOAD      ACCESS:    3940825  HIT:    3125836  MISS:     814989  HIT %:    79.3193  MISS %:    20.6807   MPKI: 32.5996
L1D RFO       ACCESS:     333434  HIT:     332778  MISS:        656  HIT %:    99.8033  MISS %:   0.196741   MPKI: 0.02624
L1D PREFETCH  ACCESS:    2580944  HIT:    1602944  MISS:     978000  HIT %:    62.1069  MISS %:    37.8931   MPKI: 39.12
AGUS PREFETCH L1 MISS: 0
L1D PREFETCH  REQUESTED:    9776130  ISSUED:    9776130  USEFUL:     934901  USELESS:      43111
L1D USEFUL LOAD PREFETCHES:     934901 PREFETCH ISSUED TO LOWER LEVEL:    1337693  ACCURACY: 69.8891
L1D TIMELY PREFETCHES:     934901 LATE PREFETCHES: 359684 DROPPED PREFETCHES: 0
L1D PREFETCHES SAME FILL-ORIGIN LEVEL: 1337693 DIFFERENT FILL-ORIGIN LEVEL: 0
L1D AVERAGE MISS LATENCY: 120.272 cycles
L1D RQ	ACCESS:    8972884	FORWARD:          0	MERGED:    4750994	TO_CACHE:    4220357
L1D WQ	ACCESS:     370377	FORWARD:       1533	MERGED:      36939	TO_CACHE:     333438
L1D PQ	ACCESS:    5191597	FORWARD:          0	MERGED:     607064	TO_CACHE:    4584533

L1D UNIQUE REGIONS ACCESSED: 0
L1D REGIONS CONFLICTS: 0
L1D Cross Page Prefetch Requests: 0
L1D Same Page Prefetch Requests: 15869623
L1D ROI Sum of L1D PQ occupancy: 59694959
L1D PREFETCHES PUSHED FROM L2C: 0
L1I TOTAL     ACCESS:    5088669  HIT:    5088669  MISS:          0  HIT %:        100  MISS %:          0   MPKI: 0
L1I LOAD      ACCESS:    5088669  HIT:    5088669  MISS:          0  HIT %:        100  MISS %:          0   MPKI: 0
L1I PREFETCH  REQUESTED:          0  ISSUED:          0  USEFUL:          0  USELESS:          0
L1I USEFUL LOAD PREFETCHES:          0 PREFETCH ISSUED TO LOWER LEVEL:          0  ACCURACY: -nan
L1I TIMELY PREFETCHES:          0 LATE PREFETCHES: 0 DROPPED PREFETCHES: 0
L1I PREFETCHES SAME FILL-ORIGIN LEVEL: 0 DIFFERENT FILL-ORIGIN LEVEL: 0
L1I AVERAGE MISS LATENCY: -nan cycles
L1I RQ	ACCESS:    7578866	FORWARD:          0	MERGED:    2490196	TO_CACHE:    5088670

BTB TOTAL     ACCESS:    5953193  HIT:    5953095  MISS:         98  HIT %:    99.9984  MISS %: 0.00164618   MPKI: 0.00392
BTB BRANCH_DIRECT_JUMP	ACCESS:      85874  HIT:      85848  MISS:         26
BTB BRANCH_INDIRECT	ACCESS:          0  HIT:          0  MISS:          0
BTB BRANCH_CONDITIONAL	ACCESS:    5783213  HIT:    5783164  MISS:         49
BTB BRANCH_DIRECT_CALL	ACCESS:      42053  HIT:      42043  MISS:         10
BTB BRANCH_INDIRECT_CALL	ACCESS:          0  HIT:          0  MISS:          0
BTB BRANCH_RETURN	ACCESS:      42053  HIT:      42040  MISS:         13
BTB BRANCH_OTHER ACCESS:          0  HIT:          0  MISS:          0

L2C TOTAL     ACCESS:    1829725  HIT:      57769  MISS:    1771956  HIT %:    3.15725  MISS %:    96.8427   MPKI: 70.8782
L2C LOAD      ACCESS:     455305  HIT:       1758  MISS:     453547  HIT %:   0.386115  MISS %:    99.6139   MPKI: 18.1419
L2C DATA LOAD MPKI: 18.1419
L2C INSTRUCTION LOAD MPKI: 0
L2C RFO       ACCESS:        647  HIT:         43  MISS:        604  HIT %:    6.64606  MISS %:    93.3539   MPKI: 0.02416
L2C PREFETCH  ACCESS:    1337693  HIT:      27359  MISS:    1310334  HIT %:    2.04524  MISS %:    97.9548   MPKI: 52.4134
AGUS PREFETCH L1 MISS: 0
L2C DATA PREFETCH MPKI: 52.4134
L2C INSTRUCTION PREFETCH MPKI: 0
L2C WRITEBACK ACCESS:       2782  HIT:       2767  MISS:         15  HIT %:    99.4608  MISS %:    0.53918   MPKI: 0.0006
L2C LOAD TRANSLATION ACCESS:      33288  HIT:      25842  MISS:       7446  HIT %:    77.6316  MISS %:    22.3684   MPKI: 0.29784
L2C TRANSLATION FROM L1D PREFETCHER ACCESS:         10  HIT:          0  MISS:         10  HIT %:          0  MISS %:        100   MPKI: 0.0004
L2C PREFETCH  REQUESTED:          0  ISSUED:          0  USEFUL:        936  USELESS:    1310396
L2C USEFUL LOAD PREFETCHES:        936 PREFETCH ISSUED TO LOWER LEVEL:    1310334  ACCURACY: 0.0714322
L2C TIMELY PREFETCHES:        936 LATE PREFETCHES: 0 DROPPED PREFETCHES: 0
L2C PREFETCHES SAME FILL-ORIGIN LEVEL: 0 DIFFERENT FILL-ORIGIN LEVEL: 0
L2C AVERAGE MISS LATENCY: 107.237 cycles
L2C RQ	ACCESS:     489250	FORWARD:          0	MERGED:          0	TO_CACHE:     489250
L2C WQ	ACCESS:       2782	FORWARD:          0	MERGED:          0	TO_CACHE:       2782
L2C PQ	ACCESS:    1337693	FORWARD:          0	MERGED:          0	TO_CACHE:    1337693

L2C Instructions Evicting Data 0
L2C Translations Evicting Data 7432
L2C Data Evicting Data 1757066
L2C Instructions Evicting Instructions 0
L2C Translations Evicting Instructions 0
L2C Data Evicting Instructions 0
L2C Instructions Evicting Translations 0
L2C Translations Evicting Translations 24
L2C Data Evicting Translations 7419
L2C Dense regions hint from L2: 0
PSCL5 TOTAL     ACCESS:      32667  HIT:      32667  MISS:          0  HIT %:        100  MISS %:          0   MPKI: 0
PSCL5 LOAD TRANSLATION ACCESS:      32662  HIT:      32662  MISS:          0  HIT %:        100  MISS %:          0   MPKI: 0
PSCL5 TRANSLATION FROM L1D PREFETCHER ACCESS:          5  HIT:          5  MISS:          0  HIT %:        100  MISS %:          0   MPKI: 0
PSCL5 PREFETCH  REQUESTED:          0  ISSUED:          0  USEFUL:          0  USELESS:          0
PSCL5 USEFUL LOAD PREFETCHES:          0 PREFETCH ISSUED TO LOWER LEVEL:          0  ACCURACY: -nan
PSCL5 TIMELY PREFETCHES:          0 LATE PREFETCHES: 0 DROPPED PREFETCHES: 0
PSCL5 PREFETCHES SAME FILL-ORIGIN LEVEL: 0 DIFFERENT FILL-ORIGIN LEVEL: 0

PSCL4 TOTAL     ACCESS:      32667  HIT:      32667  MISS:          0  HIT %:        100  MISS %:          0   MPKI: 0
PSCL4 LOAD TRANSLATION ACCESS:      32662  HIT:      32662  MISS:          0  HIT %:        100  MISS %:          0   MPKI: 0
PSCL4 TRANSLATION FROM L1D PREFETCHER ACCESS:          5  HIT:          5  MISS:          0  HIT %:        100  MISS %:          0   MPKI: 0
PSCL4 PREFETCH  REQUESTED:          0  ISSUED:          0  USEFUL:          0  USELESS:          0
PSCL4 USEFUL LOAD PREFETCHES:          0 PREFETCH ISSUED TO LOWER LEVEL:          0  ACCURACY: -nan
PSCL4 TIMELY PREFETCHES:          0 LATE PREFETCHES: 0 DROPPED PREFETCHES: 0
PSCL4 PREFETCHES SAME FILL-ORIGIN LEVEL: 0 DIFFERENT FILL-ORIGIN LEVEL: 0

PSCL3 TOTAL     ACCESS:      32576  HIT:      32573  MISS:          3  HIT %:    99.9908  MISS %: 0.00920923   MPKI: 0.00012
PSCL3 LOAD TRANSLATION ACCESS:      32572  HIT:      32569  MISS:          3  HIT %:    99.9908  MISS %: 0.00921036   MPKI: 0.00012
PSCL3 TRANSLATION FROM L1D PREFETCHER ACCESS:          4  HIT:          4  MISS:          0  HIT %:        100  MISS %:          0   MPKI: 0
PSCL3 PREFETCH  REQUESTED:          0  ISSUED:          0  USEFUL:          0  USELESS:          0
PSCL3 USEFUL LOAD PREFETCHES:          0 PREFETCH ISSUED TO LOWER LEVEL:          0  ACCURACY: -nan
PSCL3 TIMELY PREFETCHES:          0 LATE PREFETCHES: 0 DROPPED PREFETCHES: 0
PSCL3 PREFETCHES SAME FILL-ORIGIN LEVEL: 0 DIFFERENT FILL-ORIGIN LEVEL: 0

PSCL2 TOTAL     ACCESS:      32667  HIT:      31941  MISS:        726  HIT %:    97.7776  MISS %:    2.22243   MPKI: 0.02904
PSCL2 LOAD TRANSLATION ACCESS:      32666  HIT:      31940  MISS:        726  HIT %:    97.7775  MISS %:    2.22249   MPKI: 0.02904
PSCL2 TRANSLATION FROM L1D PREFETCHER ACCESS:          1  HIT:          1  MISS:          0  HIT %:        100  MISS %:          0   MPKI: 0
PSCL2 PREFETCH  REQUESTED:          0  ISSUED:          0  USEFUL:          0  USELESS:          0
PSCL2 USEFUL LOAD PREFETCHES:          0 PREFETCH ISSUED TO LOWER LEVEL:          0  ACCURACY: -nan
PSCL2 TIMELY PREFETCHES:          0 LATE PREFETCHES: 0 DROPPED PREFETCHES: 0
PSCL2 PREFETCHES SAME FILL-ORIGIN LEVEL: 0 DIFFERENT FILL-ORIGIN LEVEL: 0

LLC TOTAL     ACCESS:    1774717  HIT:       5923  MISS:    1768794  HIT %:   0.333743  MISS %:    99.6663   MPKI: 70.7518
LLC LOAD      ACCESS:     453547  HIT:        250  MISS:     453297  HIT %:  0.0551211  MISS %:    99.9449   MPKI: 18.1319
LLC RFO       ACCESS:        604  HIT:          0  MISS:        604  HIT %:          0  MISS %:        100   MPKI: 0.02416
LLC PREFETCH  ACCESS:    1310334  HIT:       2585  MISS:    1307749  HIT %:   0.197278  MISS %:    99.8027   MPKI: 52.31
AGUS PREFETCH L1 MISS: 0
LLC WRITEBACK ACCESS:       2776  HIT:       2763  MISS:         13  HIT %:    99.5317  MISS %:     0.4683   MPKI: 0.00052
LLC LOAD TRANSLATION ACCESS:       7446  HIT:        325  MISS:       7121  HIT %:    4.36476  MISS %:    95.6352   MPKI: 0.28484
LLC TRANSLATION FROM L1D PREFETCHER ACCESS:         10  HIT:          0  MISS:         10  HIT %:          0  MISS %:        100   MPKI: 0.0004
LLC PREFETCH  REQUESTED:          0  ISSUED:          0  USEFUL:         13  USELESS:    1310548
LLC USEFUL LOAD PREFETCHES:         13 PREFETCH ISSUED TO LOWER LEVEL:    1307749  ACCURACY: 0.000994075
LLC TIMELY PREFETCHES:         13 LATE PREFETCHES: 0 DROPPED PREFETCHES: 0
LLC PREFETCHES SAME FILL-ORIGIN LEVEL: 0 DIFFERENT FILL-ORIGIN LEVEL: 0
LLC AVERAGE MISS LATENCY: 77.3406 cycles
LLC RQ	ACCESS:     461607	FORWARD:          0	MERGED:          0	TO_CACHE:     461607
LLC WQ	ACCESS:       2776	FORWARD:          0	MERGED:          0	TO_CACHE:       2776
LLC PQ	ACCESS:    1310334	FORWARD:          0	MERGED:          0	TO_CACHE:    1310334

LLC Dense regions hint to LLC: 0

RAW hits: 4063
Loads Generated: 8976947
Loads sent to L1D: 8972884
Stores Generated: 370377
Stores sent to L1D: 370377
Major fault: 0 Minor fault: 48857
Allocated PAGES: 48857
CPU 0 L1D complex stride prefetcher final stats
Degree: 5

DRAM Statistics
 CHANNEL 0
 RQ ROW_BUFFER_HIT:    1662928  ROW_BUFFER_MISS:     105853
 DBUS_CONGESTED:        234
 WQ ROW_BUFFER_HIT:       1778  ROW_BUFFER_MISS:        993  FULL:          0

 AVG_CONGESTED_CYCLE: 5
 All warmup complete: 2
Channel 0 Bank busy for read cycles: 0
Channel 0 Bank busy for write cycles: 0
Channel 0
Rank 0
0banks busy for read cycles: 64860185
0banks busy for write cycles: 1579
1banks busy for read cycles: 36378847
1banks busy for write cycles: 503417
2banks busy for read cycles: 17497876
2banks busy for write cycles: 176876
3banks busy for read cycles: 6165892
3banks busy for write cycles: 62813
4banks busy for read cycles: 1729155
4banks busy for write cycles: 21330
5banks busy for read cycles: 320752
5banks busy for write cycles: 4389
6banks busy for read cycles: 94791
6banks busy for write cycles: 4022
7banks busy for read cycles: 8250
7banks busy for write cycles: 0
8banks busy for read cycles: 847
8banks busy for write cycles: 0

CPU 0 Branch Prediction Accuracy: 99.1323% MPKI: 3.09396 Average ROB Occupancy at Mispredict: 118.917
Branch types
NOT_BRANCH: 16085561 64.3422%
BRANCH_DIRECT_JUMP: 85874 0.343496%
BRANCH_INDIRECT: 0 0%
BRANCH_CONDITIONAL: 8744101 34.9764%
BRANCH_DIRECT_CALL: 42053 0.168212%
BRANCH_INDIRECT_CALL: 0 0%
BRANCH_RETURN: 42053 0.168212%
BRANCH_OTHER: 0 0%

DRAM PAGES: 1048576
Allocated PAGES: 48857
