
*** ChampSim Multicore Out-of-Order Simulator ***

Warmup Instructions: 25000000
Simulation Instructions: 25000000
Number of CPUs: 1
LLC sets: 2048
LLC ways: 16
Off-chip DRAM Size: 4096 MB Channels: 1 Width: 64-bit Data Rate: 6400 MT/s
CPU 0 runs /home/yashas/CS683/pa2-lehra-do-prefetcher-wronganswersonly/traces/trace1.champsimtrace.xz
.xz
CPU 0 Bimodal branch predictor
BTB has LRU replacement policy
ITLB has LRU replacement policy
DTLB has LRU replacement policy
STLB has LRU replacement policy
L1I has LRU replacement policy
CPU 0 L1D Optimized prefetcher
L1D has LRU replacement policy
L2C has LRU replacement policy
LLC has LRU replacement policy
Heartbeat CPU 0 instructions: 10000003 cycles: 2830061 heartbeat IPC: 3.53349 cumulative IPC: 3.53349 (Simulation time: 0 hr 0 min 15 sec) 
Heartbeat CPU 0 instructions: 20000003 cycles: 5650207 heartbeat IPC: 3.54592 cumulative IPC: 3.53969 (Simulation time: 0 hr 0 min 29 sec) 

Warmup complete CPU 0 instructions: 25000004 cycles: 7064357 (Simulation time: 0 hr 0 min 37 sec) 

IP_STRIDE Accuracy is 21.2121 
Switching to CPLX L1D prefetcher
Heartbeat CPU 0 instructions: 30000002 cycles: 23982826 heartbeat IPC: 0.545476 cumulative IPC: 0.295535 (Simulation time: 0 hr 0 min 58 sec) 
CPLX Accuracy is 12.5 
Switching to NL L1D prefetcher
NL Accuracy is 73.5294 
Prefetcher set to NL
Heartbeat CPU 0 instructions: 40000002 cycles: 57122096 heartbeat IPC: 0.301757 cumulative IPC: 0.299654 (Simulation time: 0 hr 1 min 43 sec) 
Heartbeat CPU 0 instructions: 50000000 cycles: 81419993 heartbeat IPC: 0.411558 cumulative IPC: 0.336222 (Simulation time: 0 hr 2 min 28 sec) 
Finished CPU 0 instructions: 25000000 cycles: 74355637 cumulative IPC: 0.336222 (Simulation time: 0 hr 2 min 28 sec) 

ChampSim completed all CPUs

Region of Interest Statistics

CPU 0 cumulative IPC: 0.336222 instructions: 25000000 cycles: 74355637
ITLB TOTAL     ACCESS:    4474596  HIT:    4474596  MISS:          0  HIT %:        100  MISS %:          0   MPKI: 0
ITLB LOAD TRANSLATION ACCESS:    4474596  HIT:    4474596  MISS:          0  HIT %:        100  MISS %:          0   MPKI: 0
ITLB PREFETCH  REQUESTED:          0  ISSUED:          0  USEFUL:          0  USELESS:          0
ITLB USEFUL LOAD PREFETCHES:          0 PREFETCH ISSUED TO LOWER LEVEL:          0  ACCURACY: -nan
ITLB TIMELY PREFETCHES:          0 LATE PREFETCHES: 0 DROPPED PREFETCHES: 0
ITLB PREFETCHES SAME FILL-ORIGIN LEVEL: 0 DIFFERENT FILL-ORIGIN LEVEL: 0
ITLB AVERAGE MISS LATENCY: -nan cycles
ITLB RQ	ACCESS:    4817930	FORWARD:          0	MERGED:     343335	TO_CACHE:    4474595

DTLB TOTAL     ACCESS:    3756466  HIT:    3093758  MISS:     662708  HIT %:    82.3582  MISS %:    17.6418   MPKI: 26.5083
DTLB LOAD TRANSLATION ACCESS:    3756466  HIT:    3093758  MISS:     662708  HIT %:    82.3582  MISS %:    17.6418   MPKI: 26.5083
DTLB PREFETCH  REQUESTED:          0  ISSUED:          0  USEFUL:          0  USELESS:          0
DTLB USEFUL LOAD PREFETCHES:          0 PREFETCH ISSUED TO LOWER LEVEL:          0  ACCURACY: -nan
DTLB TIMELY PREFETCHES:          0 LATE PREFETCHES: 0 DROPPED PREFETCHES: 0
DTLB PREFETCHES SAME FILL-ORIGIN LEVEL: 0 DIFFERENT FILL-ORIGIN LEVEL: 0
DTLB AVERAGE MISS LATENCY: 71.3582 cycles
DTLB RQ	ACCESS:    4353464	FORWARD:          0	MERGED:     590955	TO_CACHE:    3762509

STLB TOTAL     ACCESS:    2239692  HIT:    1677596  MISS:     562096  HIT %:     74.903  MISS %:     25.097   MPKI: 22.4838
STLB LOAD TRANSLATION ACCESS:     662708  HIT:     100738  MISS:     561970  HIT %:     15.201  MISS %:     84.799   MPKI: 22.4788
STLB TRANSLATION FROM L1D PREFETCHER ACCESS:    1576984  HIT:    1576858  MISS:        126  HIT %:     99.992  MISS %: 0.00798994   MPKI: 0.00504
STLB PREFETCH  REQUESTED:          0  ISSUED:          0  USEFUL:        126  USELESS:          0
STLB USEFUL LOAD PREFETCHES:        126 PREFETCH ISSUED TO LOWER LEVEL:          0  ACCURACY: inf
STLB TIMELY PREFETCHES:        126 LATE PREFETCHES: 0 DROPPED PREFETCHES: 0
STLB PREFETCHES SAME FILL-ORIGIN LEVEL: 0 DIFFERENT FILL-ORIGIN LEVEL: 0
STLB AVERAGE MISS LATENCY: 73.4163 cycles
STLB RQ	ACCESS:    8095032	FORWARD:          0	MERGED:    5855335	TO_CACHE:    2239697

STLB Hit, L1D data hit: 0
STLB Hit, L2C data hit: 0
STLB Hit, LLC data hit: 0
STLB Hit, LLC data miss: 0
STLB STLB hints to L2: 0
L1D TOTAL     ACCESS:   11446528  HIT:    7897413  MISS:    3549115  HIT %:     68.994  MISS %:     31.006   MPKI: 141.965
L1D LOAD      ACCESS:    3223899  HIT:    2074996  MISS:    1148903  HIT %:    64.3629  MISS %:    35.6371   MPKI: 45.9561
L1D RFO       ACCESS:    1108669  HIT:    1039309  MISS:      69360  HIT %:    93.7438  MISS %:    6.25615   MPKI: 2.7744
L1D PREFETCH  ACCESS:    7113960  HIT:    4783108  MISS:    2330852  HIT %:    67.2355  MISS %:    32.7645   MPKI: 93.2341
AGUS PREFETCH L1 MISS: 0
L1D PREFETCH  REQUESTED:   17262107  ISSUED:   17213990  USEFUL:      11963  USELESS:    2318310
L1D USEFUL LOAD PREFETCHES:      11963 PREFETCH ISSUED TO LOWER LEVEL:    2333990  ACCURACY: 0.512556
L1D TIMELY PREFETCHES:      11963 LATE PREFETCHES: 3135 DROPPED PREFETCHES: 0
L1D PREFETCHES SAME FILL-ORIGIN LEVEL: 2333990 DIFFERENT FILL-ORIGIN LEVEL: 0
L1D AVERAGE MISS LATENCY: 81.5663 cycles
L1D RQ	ACCESS:    6155496	FORWARD:          0	MERGED:    2852212	TO_CACHE:    3244793
L1D WQ	ACCESS:    1108674	FORWARD:      58491	MERGED:          3	TO_CACHE:    1108671
L1D PQ	ACCESS:    9781670	FORWARD:          0	MERGED:    2349350	TO_CACHE:    7432320

L1D UNIQUE REGIONS ACCESSED: 0
L1D REGIONS CONFLICTS: 0
L1D Cross Page Prefetch Requests: 0
L1D Same Page Prefetch Requests: 9781670
L1D ROI Sum of L1D PQ occupancy: 103618829
L1D PREFETCHES PUSHED FROM L2C: 0
L1I TOTAL     ACCESS:    4817930  HIT:    4817930  MISS:          0  HIT %:        100  MISS %:          0   MPKI: 0
L1I LOAD      ACCESS:    4817930  HIT:    4817930  MISS:          0  HIT %:        100  MISS %:          0   MPKI: 0
L1I PREFETCH  REQUESTED:          0  ISSUED:          0  USEFUL:          0  USELESS:          0
L1I USEFUL LOAD PREFETCHES:          0 PREFETCH ISSUED TO LOWER LEVEL:          0  ACCURACY: -nan
L1I TIMELY PREFETCHES:          0 LATE PREFETCHES: 0 DROPPED PREFETCHES: 0
L1I PREFETCHES SAME FILL-ORIGIN LEVEL: 0 DIFFERENT FILL-ORIGIN LEVEL: 0
L1I AVERAGE MISS LATENCY: -nan cycles
L1I RQ	ACCESS:    7246396	FORWARD:          0	MERGED:    2428466	TO_CACHE:    4817930

BTB TOTAL     ACCESS:    3283969  HIT:    3283961  MISS:          8  HIT %:    99.9998  MISS %: 0.000243608   MPKI: 0.00032
BTB BRANCH_DIRECT_JUMP	ACCESS:     568311  HIT:     568309  MISS:          2
BTB BRANCH_INDIRECT	ACCESS:          0  HIT:          0  MISS:          0
BTB BRANCH_CONDITIONAL	ACCESS:    1606988  HIT:    1606984  MISS:          4
BTB BRANCH_DIRECT_CALL	ACCESS:     554335  HIT:     554334  MISS:          1
BTB BRANCH_INDIRECT_CALL	ACCESS:          0  HIT:          0  MISS:          0
BTB BRANCH_RETURN	ACCESS:     554335  HIT:     554334  MISS:          1
BTB BRANCH_OTHER ACCESS:          0  HIT:          0  MISS:          0

L2C TOTAL     ACCESS:    4742755  HIT:    1383809  MISS:    3358946  HIT %:    29.1773  MISS %:    70.8227   MPKI: 134.358
L2C LOAD      ACCESS:    1145768  HIT:     270157  MISS:     875611  HIT %:    23.5787  MISS %:    76.4213   MPKI: 35.0244
L2C DATA LOAD MPKI: 35.0244
L2C INSTRUCTION LOAD MPKI: 0
L2C RFO       ACCESS:      69360  HIT:      17882  MISS:      51478  HIT %:    25.7814  MISS %:    74.2186   MPKI: 2.05912
L2C PREFETCH  ACCESS:    2333987  HIT:     330250  MISS:    2003737  HIT %:    14.1496  MISS %:    85.8504   MPKI: 80.1495
AGUS PREFETCH L1 MISS: 0
L2C DATA PREFETCH MPKI: 80.1495
L2C INSTRUCTION PREFETCH MPKI: 0
L2C WRITEBACK ACCESS:     554589  HIT:     554585  MISS:          4  HIT %:    99.9993  MISS %: 0.000721255   MPKI: 0.00016
L2C LOAD TRANSLATION ACCESS:     638799  HIT:     210933  MISS:     427866  HIT %:    33.0202  MISS %:    66.9798   MPKI: 17.1146
L2C TRANSLATION FROM L1D PREFETCHER ACCESS:        252  HIT:          2  MISS:        250  HIT %:   0.793651  MISS %:    99.2063   MPKI: 0.01
L2C PREFETCH  REQUESTED:          0  ISSUED:          0  USEFUL:       2572  USELESS:    1996024
L2C USEFUL LOAD PREFETCHES:       2572 PREFETCH ISSUED TO LOWER LEVEL:    2003740  ACCURACY: 0.12836
L2C TIMELY PREFETCHES:       2572 LATE PREFETCHES: 0 DROPPED PREFETCHES: 0
L2C PREFETCHES SAME FILL-ORIGIN LEVEL: 0 DIFFERENT FILL-ORIGIN LEVEL: 0
L2C AVERAGE MISS LATENCY: 74.1811 cycles
L2C RQ	ACCESS:    1854180	FORWARD:          0	MERGED:          0	TO_CACHE:    1854180
L2C WQ	ACCESS:     554589	FORWARD:          0	MERGED:          0	TO_CACHE:     554589
L2C PQ	ACCESS:    2333990	FORWARD:          0	MERGED:          0	TO_CACHE:    2333990

L2C Instructions Evicting Data 0
L2C Translations Evicting Data 349181
L2C Data Evicting Data 2579760
L2C Instructions Evicting Instructions 0
L2C Translations Evicting Instructions 0
L2C Data Evicting Instructions 0
L2C Instructions Evicting Translations 0
L2C Translations Evicting Translations 78935
L2C Data Evicting Translations 351066
L2C Dense regions hint from L2: 0
PSCL5 TOTAL     ACCESS:     562098  HIT:     562098  MISS:          0  HIT %:        100  MISS %:          0   MPKI: 0
PSCL5 LOAD TRANSLATION ACCESS:     561972  HIT:     561972  MISS:          0  HIT %:        100  MISS %:          0   MPKI: 0
PSCL5 TRANSLATION FROM L1D PREFETCHER ACCESS:        126  HIT:        126  MISS:          0  HIT %:        100  MISS %:          0   MPKI: 0
PSCL5 PREFETCH  REQUESTED:          0  ISSUED:          0  USEFUL:          0  USELESS:          0
PSCL5 USEFUL LOAD PREFETCHES:          0 PREFETCH ISSUED TO LOWER LEVEL:          0  ACCURACY: -nan
PSCL5 TIMELY PREFETCHES:          0 LATE PREFETCHES: 0 DROPPED PREFETCHES: 0
PSCL5 PREFETCHES SAME FILL-ORIGIN LEVEL: 0 DIFFERENT FILL-ORIGIN LEVEL: 0

PSCL4 TOTAL     ACCESS:     562098  HIT:     562098  MISS:          0  HIT %:        100  MISS %:          0   MPKI: 0
PSCL4 LOAD TRANSLATION ACCESS:     561972  HIT:     561972  MISS:          0  HIT %:        100  MISS %:          0   MPKI: 0
PSCL4 TRANSLATION FROM L1D PREFETCHER ACCESS:        126  HIT:        126  MISS:          0  HIT %:        100  MISS %:          0   MPKI: 0
PSCL4 PREFETCH  REQUESTED:          0  ISSUED:          0  USEFUL:          0  USELESS:          0
PSCL4 USEFUL LOAD PREFETCHES:          0 PREFETCH ISSUED TO LOWER LEVEL:          0  ACCURACY: -nan
PSCL4 TIMELY PREFETCHES:          0 LATE PREFETCHES: 0 DROPPED PREFETCHES: 0
PSCL4 PREFETCHES SAME FILL-ORIGIN LEVEL: 0 DIFFERENT FILL-ORIGIN LEVEL: 0

PSCL3 TOTAL     ACCESS:     562098  HIT:     562098  MISS:          0  HIT %:        100  MISS %:          0   MPKI: 0
PSCL3 LOAD TRANSLATION ACCESS:     561972  HIT:     561972  MISS:          0  HIT %:        100  MISS %:          0   MPKI: 0
PSCL3 TRANSLATION FROM L1D PREFETCHER ACCESS:        126  HIT:        126  MISS:          0  HIT %:        100  MISS %:          0   MPKI: 0
PSCL3 PREFETCH  REQUESTED:          0  ISSUED:          0  USEFUL:          0  USELESS:          0
PSCL3 USEFUL LOAD PREFETCHES:          0 PREFETCH ISSUED TO LOWER LEVEL:          0  ACCURACY: -nan
PSCL3 TIMELY PREFETCHES:          0 LATE PREFETCHES: 0 DROPPED PREFETCHES: 0
PSCL3 PREFETCHES SAME FILL-ORIGIN LEVEL: 0 DIFFERENT FILL-ORIGIN LEVEL: 0

PSCL2 TOTAL     ACCESS:     562097  HIT:     485143  MISS:      76954  HIT %:    86.3095  MISS %:    13.6905   MPKI: 3.07816
PSCL2 LOAD TRANSLATION ACCESS:     562097  HIT:     485143  MISS:      76954  HIT %:    86.3095  MISS %:    13.6905   MPKI: 3.07816
PSCL2 PREFETCH  REQUESTED:          0  ISSUED:          0  USEFUL:          0  USELESS:          0
PSCL2 USEFUL LOAD PREFETCHES:          0 PREFETCH ISSUED TO LOWER LEVEL:          0  ACCURACY: -nan
PSCL2 TIMELY PREFETCHES:          0 LATE PREFETCHES: 0 DROPPED PREFETCHES: 0
PSCL2 PREFETCHES SAME FILL-ORIGIN LEVEL: 0 DIFFERENT FILL-ORIGIN LEVEL: 0

LLC TOTAL     ACCESS:    3916277  HIT:    3167419  MISS:     748858  HIT %:    80.8783  MISS %:    19.1217   MPKI: 29.9543
LLC LOAD      ACCESS:     875611  HIT:     598138  MISS:     277473  HIT %:    68.3109  MISS %:    31.6891   MPKI: 11.0989
LLC RFO       ACCESS:      51478  HIT:      50656  MISS:        822  HIT %:    98.4032  MISS %:     1.5968   MPKI: 0.03288
LLC PREFETCH  ACCESS:    2003737  HIT:    1548827  MISS:     454910  HIT %:    77.2969  MISS %:    22.7031   MPKI: 18.1964
AGUS PREFETCH L1 MISS: 0
LLC WRITEBACK ACCESS:     557335  HIT:     557335  MISS:          0  HIT %:        100  MISS %:          0   MPKI: 0
LLC LOAD TRANSLATION ACCESS:     427866  HIT:     412215  MISS:      15651  HIT %:    96.3421  MISS %:    3.65792   MPKI: 0.62604
LLC TRANSLATION FROM L1D PREFETCHER ACCESS:        250  HIT:        248  MISS:          2  HIT %:       99.2  MISS %:        0.8   MPKI: 8e-05
LLC PREFETCH  REQUESTED:          0  ISSUED:          0  USEFUL:     369018  USELESS:      71356
LLC USEFUL LOAD PREFETCHES:     369018 PREFETCH ISSUED TO LOWER LEVEL:     454913  ACCURACY: 81.1184
LLC TIMELY PREFETCHES:     369018 LATE PREFETCHES: 0 DROPPED PREFETCHES: 0
LLC PREFETCHES SAME FILL-ORIGIN LEVEL: 0 DIFFERENT FILL-ORIGIN LEVEL: 0
LLC AVERAGE MISS LATENCY: 195.8 cycles
LLC RQ	ACCESS:    1355205	FORWARD:          0	MERGED:          0	TO_CACHE:    1355205
LLC WQ	ACCESS:     557335	FORWARD:          0	MERGED:          0	TO_CACHE:     557335
LLC PQ	ACCESS:    2003740	FORWARD:          0	MERGED:          0	TO_CACHE:    2003740

LLC Dense regions hint to LLC: 0

RAW hits: 495043
Loads Generated: 6650541
Loads sent to L1D: 6155496
Stores Generated: 1108674
Stores sent to L1D: 1108674
Major fault: 0 Minor fault: 23115
Allocated PAGES: 23115
CPU 0 L1D optimized prefetcher final stats
Degree: 5

DRAM Statistics
 CHANNEL 0
 RQ ROW_BUFFER_HIT:       8735  ROW_BUFFER_MISS:     740123
 DBUS_CONGESTED:         12
 WQ ROW_BUFFER_HIT:     187424  ROW_BUFFER_MISS:     381149  FULL:          0

 AVG_CONGESTED_CYCLE: 5
 All warmup complete: 2
Channel 0 Bank busy for read cycles: 0
Channel 0 Bank busy for write cycles: 0
Channel 0
Rank 0
0banks busy for read cycles: 984053
0banks busy for write cycles: 21927
1banks busy for read cycles: 15660494
1banks busy for write cycles: 1774591
2banks busy for read cycles: 14778980
2banks busy for write cycles: 2635592
3banks busy for read cycles: 10753404
3banks busy for write cycles: 3987659
4banks busy for read cycles: 4260803
4banks busy for write cycles: 3402978
5banks busy for read cycles: 873536
5banks busy for write cycles: 1374374
6banks busy for read cycles: 1260851
6banks busy for write cycles: 651338
7banks busy for read cycles: 525920
7banks busy for write cycles: 928027
8banks busy for read cycles: 235126
8banks busy for write cycles: 10245985

CPU 0 Branch Prediction Accuracy: 99.9685% MPKI: 0.04912 Average ROB Occupancy at Mispredict: 155.607
Branch types
NOT_BRANCH: 21105674 84.4227%
BRANCH_DIRECT_JUMP: 568311 2.27324%
BRANCH_INDIRECT: 0 0%
BRANCH_CONDITIONAL: 2217340 8.86936%
BRANCH_DIRECT_CALL: 554335 2.21734%
BRANCH_INDIRECT_CALL: 0 0%
BRANCH_RETURN: 554335 2.21734%
BRANCH_OTHER: 0 0%

DRAM PAGES: 1048576
Allocated PAGES: 23115
